<additional>
    <edgeData id="0" file="edge.agg.output.xml"/>
</additional>