<?xml version="1.0" encoding="UTF-8"?>

<!-- generated on 12/04/20 12:35:58 by Eclipse SUMO netedit Version 1.8.0
<configuration xmlns:xsi="http://www.w3.org/2001/XMLSchema-instance" xsi:noNamespaceSchemaLocation="http://sumo.dlr.de/xsd/netconvertConfiguration.xsd">

    <input>
        <sumo-net-file value="D:\MEGA\Greenline\Greenline_sumo\greenline_OD\greenline.net.xml"/>
    </input>

    <output>
        <output-file value="D:\MEGA\Greenline\Greenline_sumo\greenline_OD\greenline.net.xml"/>
    </output>

    <processing>
        <geometry.min-radius.fix.railways value="false"/>
        <geometry.max-grade.fix value="false"/>
        <offset.disable-normalization value="true"/>
        <lefthand value="false"/>
    </processing>

    <junctions>
        <no-turnarounds value="true"/>
        <junctions.corner-detail value="5"/>
        <junctions.limit-turn-speed value="5.5"/>
        <rectangular-lane-cut value="false"/>
    </junctions>

    <pedestrian>
        <walkingareas value="false"/>
    </pedestrian>

    <netedit>
        <additional-files value="D:\MEGA\Greenline\Greenline_sumo\greenline_OD\taz.add.xml"/>
        <route-files value="D:\MEGA\Greenline\Greenline_sumo\greenline_OD\rou.rou.xml"/>
    </netedit>

    <report>
        <aggregate-warnings value="5"/>
    </report>

</configuration>
-->

<net version="1.6" junctionCornerDetail="5" limitTurnSpeed="5.50" xmlns:xsi="http://www.w3.org/2001/XMLSchema-instance" xsi:noNamespaceSchemaLocation="http://sumo.dlr.de/xsd/net_file.xsd">

    <location netOffset="0.00,0.00" convBoundary="-806.21,-387.34,1766.85,1363.73" origBoundary="-10000000000.00,-10000000000.00,10000000000.00,10000000000.00" projParameter="!"/>

    <edge id=":gneJ100_0" function="internal">
        <lane id=":gneJ100_0_0" index="0" speed="6.61" length="9.03" shape="584.94,1000.97 585.39,1003.42 586.49,1005.16 588.24,1006.22 590.65,1006.58"/>
    </edge>
    <edge id=":gneJ100_1" function="internal">
        <lane id=":gneJ100_1_0" index="0" speed="6.51" length="8.95" shape="576.46,1006.93 578.86,1006.45 580.54,1005.32 581.50,1003.54 581.75,1001.11"/>
    </edge>
    <edge id=":gneJ100_2" function="internal">
        <lane id=":gneJ100_2_0" index="0" speed="13.89" length="14.20" shape="576.46,1006.93 590.65,1006.58"/>
    </edge>
    <edge id=":gneJ102_0" function="internal">
        <lane id=":gneJ102_0_0" index="0" speed="6.57" length="9.13" shape="547.91,361.38 547.42,358.93 546.27,357.21 544.45,356.23 541.96,355.99"/>
    </edge>
    <edge id=":gneJ102_1" function="internal">
        <lane id=":gneJ102_1_0" index="0" speed="13.89" length="14.45" shape="547.91,361.38 547.16,346.95"/>
    </edge>
    <edge id=":gneJ102_2" function="internal">
        <lane id=":gneJ102_2_0" index="0" speed="7.99" length="14.22" shape="547.91,361.38 548.25,357.49 549.75,354.66 552.42,352.87 556.25,352.13"/>
    </edge>
    <edge id=":gneJ102_3" function="internal">
        <lane id=":gneJ102_3_0" index="0" speed="6.49" length="9.03" shape="556.40,355.33 553.97,355.80 552.28,356.93 551.32,358.73 551.11,361.20"/>
    </edge>
    <edge id=":gneJ102_4" function="internal">
        <lane id=":gneJ102_4_0" index="0" speed="13.89" length="14.45" shape="556.40,355.33 541.96,355.99"/>
    </edge>
    <edge id=":gneJ102_5" function="internal">
        <lane id=":gneJ102_5_0" index="0" speed="8.01" length="5.97" shape="556.40,355.33 552.52,354.96 550.69,353.99"/>
    </edge>
    <edge id=":gneJ102_12" function="internal">
        <lane id=":gneJ102_12_0" index="0" speed="8.01" length="8.26" shape="550.69,353.99 549.68,353.45 547.90,350.77 547.16,346.95"/>
    </edge>
    <edge id=":gneJ102_6" function="internal">
        <lane id=":gneJ102_6_0" index="0" speed="6.52" length="9.07" shape="550.35,346.79 550.82,349.23 551.96,350.93 553.77,351.90 556.25,352.13"/>
    </edge>
    <edge id=":gneJ102_7" function="internal">
        <lane id=":gneJ102_7_0" index="0" speed="13.89" length="14.43" shape="550.35,346.79 551.11,361.20"/>
    </edge>
    <edge id=":gneJ102_8" function="internal">
        <lane id=":gneJ102_8_0" index="0" speed="7.99" length="14.22" shape="550.35,346.79 549.99,350.67 548.47,353.50 545.80,355.27 541.96,355.99"/>
    </edge>
    <edge id=":gneJ102_9" function="internal">
        <lane id=":gneJ102_9_0" index="0" speed="6.49" length="9.03" shape="541.83,352.79 544.26,352.33 545.96,351.21 546.93,349.41 547.16,346.95"/>
    </edge>
    <edge id=":gneJ102_10" function="internal">
        <lane id=":gneJ102_10_0" index="0" speed="13.89" length="14.43" shape="541.83,352.79 556.25,352.13"/>
    </edge>
    <edge id=":gneJ102_11" function="internal">
        <lane id=":gneJ102_11_0" index="0" speed="8.05" length="5.92" shape="541.83,352.79 545.70,353.17 547.48,354.13"/>
    </edge>
    <edge id=":gneJ102_13" function="internal">
        <lane id=":gneJ102_13_0" index="0" speed="8.05" length="8.33" shape="547.48,354.13 548.54,354.70 550.34,357.38 551.11,361.20"/>
    </edge>
    <edge id=":gneJ103_0" function="internal">
        <lane id=":gneJ103_0_0" index="0" speed="13.89" length="11.77" shape="544.07,284.27 543.57,281.12 542.54,278.73 541.12,276.44 539.46,273.61"/>
    </edge>
    <edge id=":gneJ103_1" function="internal">
        <lane id=":gneJ103_1_0" index="0" speed="13.89" length="11.77" shape="544.07,284.27 543.01,272.55"/>
    </edge>
    <edge id=":gneJ103_2" function="internal">
        <lane id=":gneJ103_2_0" index="0" speed="13.89" length="8.99" shape="550.39,275.90 549.02,278.22 547.99,279.83 547.38,281.53 547.26,284.11"/>
    </edge>
    <edge id=":gneJ103_3" function="internal">
        <lane id=":gneJ103_3_0" index="0" speed="13.89" length="11.93" shape="546.28,272.22 547.26,284.11"/>
    </edge>
    <edge id=":gneJ104_0" function="internal">
        <lane id=":gneJ104_0_0" index="0" speed="6.48" length="9.03" shape="577.61,901.68 577.16,899.24 576.03,897.54 574.24,896.58 571.77,896.36"/>
    </edge>
    <edge id=":gneJ104_1" function="internal">
        <lane id=":gneJ104_1_0" index="0" speed="13.89" length="14.43" shape="577.61,901.68 576.88,887.27"/>
    </edge>
    <edge id=":gneJ104_2" function="internal">
        <lane id=":gneJ104_2_0" index="0" speed="8.02" length="14.22" shape="577.61,901.68 578.00,897.79 579.53,894.96 582.20,893.18 586.01,892.45"/>
    </edge>
    <edge id=":gneJ104_3" function="internal">
        <lane id=":gneJ104_3_0" index="0" speed="6.53" length="9.07" shape="586.16,895.64 583.73,896.11 582.03,897.25 581.06,899.06 580.81,901.54"/>
    </edge>
    <edge id=":gneJ104_4" function="internal">
        <lane id=":gneJ104_4_0" index="0" speed="13.89" length="14.41" shape="586.16,895.64 571.77,896.36"/>
    </edge>
    <edge id=":gneJ104_5" function="internal">
        <lane id=":gneJ104_5_0" index="0" speed="8.05" length="5.89" shape="586.16,895.64 582.30,895.27 580.52,894.32"/>
    </edge>
    <edge id=":gneJ104_12" function="internal">
        <lane id=":gneJ104_12_0" index="0" speed="8.05" length="8.32" shape="580.52,894.32 579.46,893.75 577.66,891.08 576.88,887.27"/>
    </edge>
    <edge id=":gneJ104_6" function="internal">
        <lane id=":gneJ104_6_0" index="0" speed="6.56" length="9.10" shape="580.08,887.07 580.57,889.52 581.73,891.23 583.54,892.21 586.01,892.45"/>
    </edge>
    <edge id=":gneJ104_7" function="internal">
        <lane id=":gneJ104_7_0" index="0" speed="13.89" length="14.49" shape="580.08,887.07 580.81,901.54"/>
    </edge>
    <edge id=":gneJ104_8" function="internal">
        <lane id=":gneJ104_8_0" index="0" speed="7.99" length="14.23" shape="580.08,887.07 579.75,890.96 578.26,893.80 575.60,895.60 571.77,896.36"/>
    </edge>
    <edge id=":gneJ104_9" function="internal">
        <lane id=":gneJ104_9_0" index="0" speed="6.50" length="9.04" shape="571.60,893.16 574.04,892.68 575.73,891.54 576.68,889.73 576.88,887.27"/>
    </edge>
    <edge id=":gneJ104_10" function="internal">
        <lane id=":gneJ104_10_0" index="0" speed="13.89" length="14.43" shape="571.60,893.16 586.01,892.45"/>
    </edge>
    <edge id=":gneJ104_11" function="internal">
        <lane id=":gneJ104_11_0" index="0" speed="7.98" length="5.96" shape="571.60,893.16 575.49,893.51 577.31,894.48"/>
    </edge>
    <edge id=":gneJ104_13" function="internal">
        <lane id=":gneJ104_13_0" index="0" speed="7.98" length="8.27" shape="577.31,894.48 578.32,895.03 580.10,897.70 580.81,901.54"/>
    </edge>
    <edge id=":gneJ105_0" function="internal">
        <lane id=":gneJ105_0_0" index="0" speed="6.57" length="9.15" shape="570.17,775.20 569.66,772.76 568.50,771.05 566.66,770.08 564.17,769.85"/>
    </edge>
    <edge id=":gneJ105_1" function="internal">
        <lane id=":gneJ105_1_0" index="0" speed="13.89" length="20.85" shape="570.17,775.20 568.99,754.39"/>
    </edge>
    <edge id=":gneJ105_2" function="internal">
        <lane id=":gneJ105_2_0" index="0" speed="8.66" length="16.89" shape="570.17,775.20 570.40,769.92 571.84,766.07 574.47,763.68 578.29,762.72"/>
    </edge>
    <edge id=":gneJ105_3" function="internal">
        <lane id=":gneJ105_3_0" index="0" speed="6.49" length="9.03" shape="578.63,769.11 576.20,769.59 574.51,770.73 573.56,772.54 573.36,775.01"/>
    </edge>
    <edge id=":gneJ105_4" function="internal">
        <lane id=":gneJ105_4_0" index="0" speed="13.89" length="14.48" shape="578.63,769.11 564.17,769.85"/>
        <lane id=":gneJ105_4_1" index="1" speed="13.89" length="14.48" shape="578.46,765.92 564.01,766.66"/>
    </edge>
    <edge id=":gneJ105_6" function="internal">
        <lane id=":gneJ105_6_0" index="0" speed="8.68" length="5.30" shape="578.46,765.92 574.56,765.37 573.46,764.57"/>
    </edge>
    <edge id=":gneJ105_14" function="internal">
        <lane id=":gneJ105_14_0" index="0" speed="8.68" length="11.60" shape="573.46,764.57 571.68,763.27 569.82,759.61 568.99,754.39"/>
    </edge>
    <edge id=":gneJ105_7" function="internal">
        <lane id=":gneJ105_7_0" index="0" speed="6.53" length="9.08" shape="572.19,754.22 572.67,756.65 573.82,758.35 575.64,759.31 578.13,759.53"/>
    </edge>
    <edge id=":gneJ105_8" function="internal">
        <lane id=":gneJ105_8_0" index="0" speed="13.89" length="20.82" shape="572.19,754.22 573.36,775.01"/>
    </edge>
    <edge id=":gneJ105_9" function="internal">
        <lane id=":gneJ105_9_0" index="0" speed="8.67" length="16.87" shape="572.19,754.22 571.91,759.50 570.46,763.33 567.82,765.71 564.01,766.66"/>
    </edge>
    <edge id=":gneJ105_10" function="internal">
        <lane id=":gneJ105_10_0" index="0" speed="6.50" length="9.03" shape="563.69,760.26 566.12,759.79 567.81,758.66 568.77,756.85 568.99,754.39"/>
    </edge>
    <edge id=":gneJ105_11" function="internal">
        <lane id=":gneJ105_11_0" index="0" speed="13.89" length="14.46" shape="563.69,760.26 578.13,759.53"/>
        <lane id=":gneJ105_11_1" index="1" speed="13.89" length="14.46" shape="563.85,763.46 578.29,762.72"/>
    </edge>
    <edge id=":gneJ105_13" function="internal">
        <lane id=":gneJ105_13_0" index="0" speed="8.72" length="5.27" shape="563.85,763.46 567.74,764.02 568.82,764.81"/>
    </edge>
    <edge id=":gneJ105_15" function="internal">
        <lane id=":gneJ105_15_0" index="0" speed="8.72" length="11.64" shape="568.82,764.81 570.62,766.13 572.50,769.79 573.36,775.01"/>
    </edge>
    <edge id=":gneJ106_0" function="internal">
        <lane id=":gneJ106_0_0" index="0" speed="6.55" length="9.12" shape="562.16,625.27 561.68,622.81 560.53,621.09 558.72,620.11 556.24,619.87"/>
    </edge>
    <edge id=":gneJ106_1" function="internal">
        <lane id=":gneJ106_1_0" index="0" speed="13.89" length="14.46" shape="562.16,625.27 561.42,610.82"/>
    </edge>
    <edge id=":gneJ106_2" function="internal">
        <lane id=":gneJ106_2_0" index="0" speed="7.98" length="5.95" shape="562.16,625.27 562.51,621.37 563.47,619.58"/>
    </edge>
    <edge id=":gneJ106_12" function="internal">
        <lane id=":gneJ106_12_0" index="0" speed="7.98" length="8.30" shape="563.47,619.58 564.03,618.54 566.71,616.77 570.55,616.06"/>
    </edge>
    <edge id=":gneJ106_3" function="internal">
        <lane id=":gneJ106_3_0" index="0" speed="6.48" length="9.03" shape="570.68,619.26 568.24,619.71 566.54,620.83 565.58,622.63 565.36,625.10"/>
    </edge>
    <edge id=":gneJ106_4" function="internal">
        <lane id=":gneJ106_4_0" index="0" speed="13.89" length="14.45" shape="570.68,619.26 556.24,619.87"/>
    </edge>
    <edge id=":gneJ106_5" function="internal">
        <lane id=":gneJ106_5_0" index="0" speed="8.05" length="14.25" shape="570.68,619.26 566.79,618.86 563.96,617.33 562.16,614.65 561.42,610.82"/>
    </edge>
    <edge id=":gneJ106_6" function="internal">
        <lane id=":gneJ106_6_0" index="0" speed="6.56" length="9.13" shape="564.62,610.66 565.09,613.11 566.24,614.83 568.06,615.81 570.55,616.06"/>
    </edge>
    <edge id=":gneJ106_7" function="internal">
        <lane id=":gneJ106_7_0" index="0" speed="13.89" length="14.45" shape="564.62,610.66 565.36,625.10"/>
    </edge>
    <edge id=":gneJ106_8" function="internal">
        <lane id=":gneJ106_8_0" index="0" speed="7.99" length="5.92" shape="564.62,610.66 564.26,614.54 563.31,616.32"/>
    </edge>
    <edge id=":gneJ106_13" function="internal">
        <lane id=":gneJ106_13_0" index="0" speed="7.99" length="8.30" shape="563.31,616.32 562.74,617.37 560.07,619.15 556.24,619.87"/>
    </edge>
    <edge id=":gneJ106_9" function="internal">
        <lane id=":gneJ106_9_0" index="0" speed="6.50" length="9.03" shape="556.10,616.68 558.53,616.22 560.23,615.09 561.19,613.29 561.42,610.82"/>
    </edge>
    <edge id=":gneJ106_10" function="internal">
        <lane id=":gneJ106_10_0" index="0" speed="13.89" length="14.47" shape="556.10,616.68 570.55,616.06"/>
    </edge>
    <edge id=":gneJ106_11" function="internal">
        <lane id=":gneJ106_11_0" index="0" speed="8.04" length="14.25" shape="556.10,616.68 559.98,617.05 562.81,618.58 564.61,621.26 565.36,625.10"/>
    </edge>
    <edge id=":gneJ107_0" function="internal">
        <lane id=":gneJ107_0_0" index="0" speed="6.50" length="9.03" shape="556.36,509.89 555.89,507.45 554.75,505.76 552.95,504.81 550.48,504.59"/>
    </edge>
    <edge id=":gneJ107_1" function="internal">
        <lane id=":gneJ107_1_0" index="0" speed="13.89" length="11.22" shape="556.36,509.89 555.75,498.68"/>
    </edge>
    <edge id=":gneJ107_2" function="internal">
        <lane id=":gneJ107_2_0" index="0" speed="6.52" length="9.06" shape="564.87,503.82 562.44,504.30 560.75,505.44 559.79,507.25 559.56,509.73"/>
    </edge>
    <edge id=":gneJ107_3" function="internal">
        <lane id=":gneJ107_3_0" index="0" speed="13.89" length="14.41" shape="564.87,503.82 550.48,504.59"/>
    </edge>
    <edge id=":gneJ107_4" function="internal">
        <lane id=":gneJ107_4_0" index="0" speed="7.36" length="11.75" shape="564.87,503.82 561.01,503.67 558.21,502.77 556.45,501.10 555.75,498.68"/>
    </edge>
    <edge id=":gneJ107_5" function="internal">
        <lane id=":gneJ107_5_0" index="0" speed="13.89" length="11.26" shape="558.94,498.48 559.56,509.73"/>
    </edge>
    <edge id=":gneJ107_6" function="internal">
        <lane id=":gneJ107_6_0" index="0" speed="7.31" length="4.09" shape="558.94,498.48 558.55,500.97 557.54,502.18"/>
    </edge>
    <edge id=":gneJ107_7" function="internal">
        <lane id=":gneJ107_7_0" index="0" speed="7.31" length="7.66" shape="557.54,502.18 557.01,502.82 554.32,504.03 550.48,504.59"/>
    </edge>
    <edge id=":gneJ108_0" function="internal">
        <lane id=":gneJ108_0_0" index="0" speed="13.89" length="11.27" shape="554.14,473.31 553.48,462.06"/>
    </edge>
    <edge id=":gneJ108_1" function="internal">
        <lane id=":gneJ108_1_0" index="0" speed="7.31" length="4.08" shape="554.14,473.31 554.53,470.82 555.53,469.62"/>
    </edge>
    <edge id=":gneJ108_7" function="internal">
        <lane id=":gneJ108_7_0" index="0" speed="7.31" length="7.66" shape="555.53,469.62 556.07,468.96 558.75,467.76 562.58,467.19"/>
    </edge>
    <edge id=":gneJ108_2" function="internal">
        <lane id=":gneJ108_2_0" index="0" speed="6.51" length="9.06" shape="556.68,461.88 557.16,464.32 558.31,466.02 560.12,466.97 562.58,467.19"/>
    </edge>
    <edge id=":gneJ108_3" function="internal">
        <lane id=":gneJ108_3_0" index="0" speed="13.89" length="11.24" shape="556.68,461.88 557.33,473.10"/>
    </edge>
    <edge id=":gneJ108_4" function="internal">
        <lane id=":gneJ108_4_0" index="0" speed="6.48" length="9.03" shape="548.18,467.92 550.62,467.46 552.31,466.33 553.27,464.53 553.48,462.06"/>
    </edge>
    <edge id=":gneJ108_5" function="internal">
        <lane id=":gneJ108_5_0" index="0" speed="13.89" length="14.42" shape="548.18,467.92 562.58,467.19"/>
    </edge>
    <edge id=":gneJ108_6" function="internal">
        <lane id=":gneJ108_6_0" index="0" speed="7.39" length="11.78" shape="548.18,467.92 552.05,468.09 554.87,469.02 556.63,470.69 557.33,473.10"/>
    </edge>
    <edge id=":gneJ109_0" function="internal">
        <lane id=":gneJ109_0_0" index="0" speed="6.58" length="9.16" shape="395.73,367.91 395.23,365.45 394.07,363.72 392.25,362.74 389.77,362.50"/>
    </edge>
    <edge id=":gneJ109_1" function="internal">
        <lane id=":gneJ109_1_0" index="0" speed="13.89" length="14.48" shape="395.73,367.91 394.95,353.45"/>
    </edge>
    <edge id=":gneJ109_2" function="internal">
        <lane id=":gneJ109_2_0" index="0" speed="7.97" length="14.26" shape="395.73,367.91 396.05,364.01 397.55,361.16 400.22,359.38 404.07,358.66"/>
    </edge>
    <edge id=":gneJ109_3" function="internal">
        <lane id=":gneJ109_3_0" index="0" speed="6.47" length="9.03" shape="404.21,361.86 401.77,362.32 400.08,363.44 399.13,365.24 398.93,367.72"/>
    </edge>
    <edge id=":gneJ109_4" function="internal">
        <lane id=":gneJ109_4_0" index="0" speed="13.89" length="14.46" shape="404.21,361.86 389.77,362.50"/>
    </edge>
    <edge id=":gneJ109_5" function="internal">
        <lane id=":gneJ109_5_0" index="0" speed="8.03" length="5.95" shape="404.21,361.86 400.32,361.48 398.52,360.51"/>
    </edge>
    <edge id=":gneJ109_12" function="internal">
        <lane id=":gneJ109_12_0" index="0" speed="8.03" length="8.30" shape="398.52,360.51 397.47,359.95 395.69,357.27 394.95,353.45"/>
    </edge>
    <edge id=":gneJ109_6" function="internal">
        <lane id=":gneJ109_6_0" index="0" speed="6.54" length="9.10" shape="398.15,353.30 398.62,355.74 399.76,357.44 401.58,358.42 404.07,358.66"/>
    </edge>
    <edge id=":gneJ109_7" function="internal">
        <lane id=":gneJ109_7_0" index="0" speed="13.89" length="14.44" shape="398.15,353.30 398.93,367.72"/>
    </edge>
    <edge id=":gneJ109_8" function="internal">
        <lane id=":gneJ109_8_0" index="0" speed="8.00" length="14.20" shape="398.15,353.30 397.78,357.17 396.26,360.00 393.59,361.77 389.77,362.50"/>
    </edge>
    <edge id=":gneJ109_9" function="internal">
        <lane id=":gneJ109_9_0" index="0" speed="6.51" length="9.03" shape="389.62,359.30 392.05,358.84 393.75,357.71 394.72,355.91 394.95,353.45"/>
    </edge>
    <edge id=":gneJ109_10" function="internal">
        <lane id=":gneJ109_10_0" index="0" speed="13.89" length="14.47" shape="389.62,359.30 404.07,358.66"/>
    </edge>
    <edge id=":gneJ109_11" function="internal">
        <lane id=":gneJ109_11_0" index="0" speed="8.06" length="5.95" shape="389.62,359.30 393.49,359.68 395.31,360.65"/>
    </edge>
    <edge id=":gneJ109_13" function="internal">
        <lane id=":gneJ109_13_0" index="0" speed="8.06" length="8.31" shape="395.31,360.65 396.33,361.20 398.14,363.88 398.93,367.72"/>
    </edge>
    <edge id=":gneJ110_0" function="internal">
        <lane id=":gneJ110_0_0" index="0" speed="13.89" length="14.33" shape="97.27,381.56 96.60,367.25"/>
    </edge>
    <edge id=":gneJ110_1" function="internal">
        <lane id=":gneJ110_1_0" index="0" speed="8.00" length="14.15" shape="97.27,381.56 97.65,377.71 99.18,374.89 101.84,373.13 105.65,372.40"/>
    </edge>
    <edge id=":gneJ110_2" function="internal">
        <lane id=":gneJ110_2_0" index="0" speed="6.51" length="9.01" shape="105.80,375.60 103.38,376.06 101.68,377.18 100.71,378.97 100.46,381.43"/>
    </edge>
    <edge id=":gneJ110_3" function="internal">
        <lane id=":gneJ110_3_0" index="0" speed="8.00" length="14.15" shape="105.80,375.60 101.94,375.23 99.12,373.71 97.34,371.05 96.60,367.25"/>
    </edge>
    <edge id=":gneJ110_4" function="internal">
        <lane id=":gneJ110_4_0" index="0" speed="6.51" length="9.01" shape="99.80,367.09 100.27,369.51 101.40,371.20 103.20,372.17 105.65,372.40"/>
    </edge>
    <edge id=":gneJ110_5" function="internal">
        <lane id=":gneJ110_5_0" index="0" speed="13.89" length="14.36" shape="99.80,367.09 100.46,381.43"/>
    </edge>
    <edge id=":gneJ111_0" function="internal">
        <lane id=":gneJ111_0_0" index="0" speed="5.86" length="9.12" shape="-96.30,334.95 -98.85,334.21 -100.72,334.59 -101.92,336.07 -102.44,338.67"/>
    </edge>
    <edge id=":gneJ111_1" function="internal">
        <lane id=":gneJ111_1_0" index="0" speed="13.89" length="16.13" shape="-96.30,334.95 -111.21,328.80"/>
    </edge>
    <edge id=":gneJ111_2" function="internal">
        <lane id=":gneJ111_2_0" index="0" speed="9.09" length="6.48" shape="-96.30,334.95 -100.15,332.62 -101.42,331.11"/>
    </edge>
    <edge id=":gneJ111_12" function="internal">
        <lane id=":gneJ111_12_0" index="0" speed="9.09" length="9.52" shape="-101.42,331.11 -102.60,329.72 -103.65,326.24 -103.30,322.18"/>
    </edge>
    <edge id=":gneJ111_3" function="internal">
        <lane id=":gneJ111_3_0" index="0" speed="7.77" length="11.49" shape="-100.15,322.95 -100.39,325.80 -99.61,328.26 -97.81,330.34 -94.99,332.03"/>
    </edge>
    <edge id=":gneJ111_4" function="internal">
        <lane id=":gneJ111_4_0" index="0" speed="13.89" length="15.91" shape="-100.15,322.95 -100.97,326.75 -101.63,330.76 -102.13,334.79 -102.44,338.67"/>
    </edge>
    <edge id=":gneJ111_5" function="internal">
        <lane id=":gneJ111_5_0" index="0" speed="7.82" length="14.68" shape="-100.15,322.95 -101.69,326.73 -104.04,328.97 -107.22,329.66 -111.21,328.80"/>
    </edge>
    <edge id=":gneJ111_6" function="internal">
        <lane id=":gneJ111_6_0" index="0" speed="6.26" length="9.04" shape="-110.10,325.80 -107.63,326.33 -105.68,325.91 -104.23,324.52 -103.30,322.18"/>
    </edge>
    <edge id=":gneJ111_7" function="internal">
        <lane id=":gneJ111_7_0" index="0" speed="13.89" length="16.34" shape="-110.10,325.80 -94.99,332.03"/>
    </edge>
    <edge id=":gneJ111_8" function="internal">
        <lane id=":gneJ111_8_0" index="0" speed="9.61" length="6.68" shape="-110.10,325.80 -106.53,327.75 -104.80,329.71"/>
    </edge>
    <edge id=":gneJ111_13" function="internal">
        <lane id=":gneJ111_13_0" index="0" speed="9.61" length="9.49" shape="-104.80,329.71 -104.07,330.55 -102.70,334.19 -102.44,338.67"/>
    </edge>
    <edge id=":gneJ111_9" function="internal">
        <lane id=":gneJ111_9_0" index="0" speed="8.34" length="12.05" shape="-105.68,338.48 -105.85,335.08 -106.83,332.34 -108.61,330.24 -111.21,328.80"/>
    </edge>
    <edge id=":gneJ111_10" function="internal">
        <lane id=":gneJ111_10_0" index="0" speed="13.89" length="16.49" shape="-105.68,338.48 -105.34,334.51 -104.81,330.28 -104.12,326.08 -103.30,322.18"/>
    </edge>
    <edge id=":gneJ111_11" function="internal">
        <lane id=":gneJ111_11_0" index="0" speed="7.53" length="15.83" shape="-105.68,338.48 -104.75,333.98 -102.66,331.40 -99.40,330.75 -94.99,332.03"/>
    </edge>
    <edge id=":gneJ114_0" function="internal">
        <lane id=":gneJ114_0_0" index="0" speed="5.64" length="9.27" shape="421.50,912.39 421.02,909.64 419.86,908.21 418.03,908.12 415.52,909.36"/>
    </edge>
    <edge id=":gneJ114_1" function="internal">
        <lane id=":gneJ114_1_0" index="0" speed="13.89" length="16.87" shape="421.50,912.39 420.68,895.55"/>
    </edge>
    <edge id=":gneJ114_2" function="internal">
        <lane id=":gneJ114_2_0" index="0" speed="8.36" length="15.42" shape="421.50,912.39 422.09,908.57 423.93,904.81 426.62,901.90 429.79,900.64"/>
    </edge>
    <edge id=":gneJ114_3" function="internal">
        <lane id=":gneJ114_3_0" index="0" speed="7.20" length="11.19" shape="429.95,903.84 427.53,904.48 425.84,906.09 424.90,908.69 424.69,912.26"/>
    </edge>
    <edge id=":gneJ114_4" function="internal">
        <lane id=":gneJ114_4_0" index="0" speed="13.89" length="15.62" shape="429.95,903.84 426.18,904.42 422.42,905.66 418.83,907.36 415.52,909.36"/>
    </edge>
    <edge id=":gneJ114_5" function="internal">
        <lane id=":gneJ114_5_0" index="0" speed="8.01" length="4.68" shape="429.95,903.84 426.09,903.49 425.38,903.12"/>
    </edge>
    <edge id=":gneJ114_12" function="internal">
        <lane id=":gneJ114_12_0" index="0" speed="8.01" length="9.49" shape="425.38,903.12 423.26,902.00 421.45,899.35 420.68,895.55"/>
    </edge>
    <edge id=":gneJ114_6" function="internal">
        <lane id=":gneJ114_6_0" index="0" speed="6.52" length="9.03" shape="423.87,895.36 424.37,897.78 425.52,899.47 427.32,900.42 429.79,900.64"/>
    </edge>
    <edge id=":gneJ114_7" function="internal">
        <lane id=":gneJ114_7_0" index="0" speed="13.89" length="16.93" shape="423.87,895.36 424.69,912.26"/>
    </edge>
    <edge id=":gneJ114_8" function="internal">
        <lane id=":gneJ114_8_0" index="0" speed="11.10" length="16.78" shape="423.87,895.36 423.29,898.83 421.44,902.77 418.72,906.49 415.52,909.36"/>
    </edge>
    <edge id=":gneJ114_9" function="internal">
        <lane id=":gneJ114_9_0" index="0" speed="10.10" length="13.76" shape="413.75,906.73 416.92,904.18 419.13,901.47 420.38,898.59 420.68,895.55"/>
    </edge>
    <edge id=":gneJ114_10" function="internal">
        <lane id=":gneJ114_10_0" index="0" speed="13.89" length="17.30" shape="413.75,906.73 417.30,904.63 421.45,902.74 425.76,901.31 429.79,900.64"/>
    </edge>
    <edge id=":gneJ114_11" function="internal">
        <lane id=":gneJ114_11_0" index="0" speed="7.39" length="7.79" shape="413.75,906.73 418.35,904.43 421.00,904.56"/>
    </edge>
    <edge id=":gneJ114_13" function="internal">
        <lane id=":gneJ114_13_0" index="0" speed="7.39" length="9.20" shape="421.00,904.56 421.70,904.59 423.82,907.20 424.69,912.26"/>
    </edge>
    <edge id=":gneJ115_0" function="internal">
        <lane id=":gneJ115_0_0" index="0" speed="6.57" length="9.12" shape="414.02,782.96 413.52,780.50 412.37,778.78 410.55,777.80 408.08,777.56"/>
    </edge>
    <edge id=":gneJ115_1" function="internal">
        <lane id=":gneJ115_1_0" index="0" speed="13.89" length="20.92" shape="414.02,782.96 413.04,762.06"/>
    </edge>
    <edge id=":gneJ115_2" function="internal">
        <lane id=":gneJ115_2_0" index="0" speed="8.66" length="16.93" shape="414.02,782.96 414.26,777.67 415.71,773.83 418.36,771.44 422.21,770.49"/>
    </edge>
    <edge id=":gneJ115_3" function="internal">
        <lane id=":gneJ115_3_0" index="0" speed="6.50" length="9.06" shape="422.53,776.88 420.08,777.36 418.38,778.49 417.42,780.30 417.21,782.77"/>
    </edge>
    <edge id=":gneJ115_4" function="internal">
        <lane id=":gneJ115_4_0" index="0" speed="13.89" length="14.46" shape="422.53,776.88 408.08,777.56"/>
        <lane id=":gneJ115_4_1" index="1" speed="13.89" length="14.46" shape="422.37,773.69 407.94,774.36"/>
    </edge>
    <edge id=":gneJ115_6" function="internal">
        <lane id=":gneJ115_6_0" index="0" speed="8.65" length="5.32" shape="422.37,773.69 418.44,773.13 417.36,772.32"/>
    </edge>
    <edge id=":gneJ115_14" function="internal">
        <lane id=":gneJ115_14_0" index="0" speed="8.65" length="11.62" shape="417.36,772.32 415.58,771.00 413.78,767.31 413.04,762.06"/>
    </edge>
    <edge id=":gneJ115_7" function="internal">
        <lane id=":gneJ115_7_0" index="0" speed="6.47" length="9.03" shape="416.24,761.95 416.68,764.39 417.79,766.10 419.58,767.06 422.05,767.29"/>
    </edge>
    <edge id=":gneJ115_8" function="internal">
        <lane id=":gneJ115_8_0" index="0" speed="13.89" length="20.84" shape="416.24,761.95 417.21,782.77"/>
    </edge>
    <edge id=":gneJ115_9" function="internal">
        <lane id=":gneJ115_9_0" index="0" speed="8.71" length="16.87" shape="416.24,761.95 415.88,767.24 414.37,771.07 411.72,773.44 407.94,774.36"/>
    </edge>
    <edge id=":gneJ115_10" function="internal">
        <lane id=":gneJ115_10_0" index="0" speed="6.55" length="9.10" shape="407.66,767.97 410.09,767.51 411.79,766.37 412.78,764.55 413.04,762.06"/>
    </edge>
    <edge id=":gneJ115_11" function="internal">
        <lane id=":gneJ115_11_0" index="0" speed="13.89" length="14.42" shape="407.66,767.97 422.05,767.29"/>
        <lane id=":gneJ115_11_1" index="1" speed="13.89" length="14.42" shape="407.80,771.16 422.21,770.49"/>
    </edge>
    <edge id=":gneJ115_13" function="internal">
        <lane id=":gneJ115_13_0" index="0" speed="8.72" length="5.22" shape="407.80,771.16 411.65,771.75 412.71,772.54"/>
    </edge>
    <edge id=":gneJ115_15" function="internal">
        <lane id=":gneJ115_15_0" index="0" speed="8.72" length="11.64" shape="412.71,772.54 414.50,773.87 416.36,777.55 417.21,782.77"/>
    </edge>
    <edge id=":gneJ116_0" function="internal">
        <lane id=":gneJ116_0_0" index="0" speed="6.56" length="9.16" shape="-87.71,907.79 -88.18,905.33 -89.32,903.61 -91.14,902.62 -93.64,902.36"/>
    </edge>
    <edge id=":gneJ116_1" function="internal">
        <lane id=":gneJ116_1_0" index="0" speed="13.89" length="20.87" shape="-87.71,907.79 -88.65,886.94"/>
    </edge>
    <edge id=":gneJ116_2" function="internal">
        <lane id=":gneJ116_2_0" index="0" speed="8.65" length="16.93" shape="-87.71,907.79 -87.38,902.50 -85.87,898.69 -83.19,896.35 -79.32,895.48"/>
    </edge>
    <edge id=":gneJ116_3" function="internal">