<?xml version="1.0" encoding="UTF-8"?>

<!-- generated on 12/28/20 16:24:13 by Eclipse SUMO netedit Version 1.8.0
<configuration xmlns:xsi="http://www.w3.org/2001/XMLSchema-instance" xsi:noNamespaceSchemaLocation="http://sumo.dlr.de/xsd/netconvertConfiguration.xsd">

    <input>
        <sumo-net-file value="D:\MEGA\Greenline\Greenline_sumo\greenline_OD\greenline.net.xml"/>
    </input>

    <output>
        <output-file value="D:\MEGA\Greenline\Greenline_sumo\greenline_OD\greenline.net.xml"/>
    </output>

    <processing>
        <geometry.min-radius.fix.railways value="false"/>
        <geometry.max-grade.fix value="false"/>
        <offset.disable-normalization value="true"/>
        <lefthand value="false"/>
    </processing>

    <junctions>
        <no-turnarounds value="true"/>
        <junctions.corner-detail value="5"/>
        <junctions.limit-turn-speed value="5.5"/>
        <rectangular-lane-cut value="false"/>
    </junctions>

    <pedestrian>
        <walkingareas value="false"/>
    </pedestrian>

    <report>
        <aggregate-warnings value="5"/>
    </report>

</configuration>
-->

<net version="1.6" junctionCornerDetail="5" limitTurnSpeed="5.50" xmlns:xsi="http://www.w3.org/2001/XMLSchema-instance" xsi:noNamespaceSchemaLocation="http://sumo.dlr.de/xsd/net_file.xsd">

    <location netOffset="0.00,0.00" convBoundary="-624.18,-504.85,1918.12,1411.57" origBoundary="-10000000000.00,-10000000000.00,10000000000.00,10000000000.00" projParameter="!"/>

    <edge id=":1_0" function="internal">
        <lane id=":1_0_0" index="0" speed="17.00" length="37.76" shape="1375.94,1060.23 1373.62,1022.54"/>
        <lane id=":1_0_1" index="1" speed="17.00" length="37.76" shape="1379.13,1060.09 1376.82,1022.41"/>
        <lane id=":1_0_2" index="2" speed="17.00" length="37.76" shape="1382.33,1059.95 1380.01,1022.27"/>
        <lane id=":1_0_3" index="3" speed="17.00" length="37.76" shape="1385.53,1059.81 1383.21,1022.13"/>
    </edge>
    <edge id=":1_4" function="internal">
        <lane id=":1_4_0" index="0" speed="12.55" length="39.36" shape="1385.53,1059.81 1385.75,1047.87 1388.46,1039.48 1394.67,1034.68 1405.36,1033.56"/>
    </edge>
    <edge id=":1_5" function="internal">
        <lane id=":1_5_0" index="0" speed="11.62" length="33.59" shape="1388.72,1059.65 1388.89,1049.36 1391.13,1042.03 1396.29,1037.79 1405.18,1036.75"/>
    </edge>
    <edge id=":1_6" function="internal">
        <lane id=":1_6_0" index="0" speed="3.84" length="5.40" shape="1388.72,1059.65 1389.59,1058.23 1390.50,1057.73 1391.44,1058.16 1392.42,1059.51"/>
    </edge>
    <edge id=":1_7" function="internal">
        <lane id=":1_7_0" index="0" speed="17.00" length="37.22" shape="1404.29,1053.12 1367.13,1054.35"/>
        <lane id=":1_7_1" index="1" speed="17.00" length="37.22" shape="1404.46,1049.93 1367.25,1051.15"/>
        <lane id=":1_7_2" index="2" speed="17.00" length="37.22" shape="1404.64,1046.73 1367.37,1047.95"/>
        <lane id=":1_7_3" index="3" speed="17.00" length="37.22" shape="1404.64,1046.73 1367.49,1044.76"/>
    </edge>
    <edge id=":1_11" function="internal">
        <lane id=":1_11_0" index="0" speed="13.03" length="36.44" shape="1404.81,1043.53 1394.28,1041.72 1386.64,1037.58 1381.89,1031.09 1380.01,1022.27"/>
    </edge>
    <edge id=":1_12" function="internal">
        <lane id=":1_12_0" index="0" speed="12.16" length="31.64" shape="1404.99,1040.34 1395.74,1038.78 1389.02,1035.22 1384.85,1029.67 1383.21,1022.13"/>
    </edge>
    <edge id=":1_13" function="internal">
        <lane id=":1_13_0" index="0" speed="3.80" length="5.25" shape="1404.99,1040.34 1403.69,1039.37 1403.29,1038.45 1403.79,1037.58 1405.18,1036.75"/>
    </edge>
    <edge id=":1_14" function="internal">
        <lane id=":1_14_0" index="0" speed="17.00" length="37.82" shape="1399.68,1021.43 1398.81,1059.23"/>
        <lane id=":1_14_1" index="1" speed="17.00" length="37.82" shape="1396.49,1021.56 1395.62,1059.37"/>
        <lane id=":1_14_2" index="2" speed="17.00" length="37.82" shape="1393.29,1021.70 1392.42,1059.51"/>
    </edge>
    <edge id=":1_17" function="internal">
        <lane id=":1_17_0" index="0" speed="12.77" length="40.24" shape="1390.09,1021.84 1389.16,1033.61 1385.06,1041.89 1377.80,1046.67 1367.37,1047.95"/>
    </edge>
    <edge id=":1_18" function="internal">
        <lane id=":1_18_0" index="0" speed="11.89" length="34.77" shape="1386.90,1021.98 1386.10,1032.24 1382.61,1039.46 1376.40,1043.63 1367.49,1044.76"/>
    </edge>
    <edge id=":1_19" function="internal">
        <lane id=":1_19_0" index="0" speed="3.83" length="5.38" shape="1386.90,1021.98 1386.03,1023.40 1385.13,1023.90 1384.19,1023.47 1383.21,1022.13"/>
    </edge>
    <edge id=":1_20" function="internal">
        <lane id=":1_20_0" index="0" speed="17.00" length="37.42" shape="1368.14,1028.04 1405.53,1030.36"/>
        <lane id=":1_20_1" index="1" speed="17.00" length="37.42" shape="1368.01,1031.23 1405.36,1033.56"/>
        <lane id=":1_20_2" index="2" speed="17.00" length="37.42" shape="1367.89,1034.43 1405.18,1036.75"/>
    </edge>
    <edge id=":1_23" function="internal">
        <lane id=":1_23_0" index="0" speed="13.48" length="22.37" shape="1367.77,1037.63 1379.61,1039.42 1388.20,1043.65 1388.71,1044.28"/>
    </edge>
    <edge id=":1_24" function="internal">
        <lane id=":1_24_0" index="0" speed="12.65" length="14.18" shape="1367.65,1040.83 1378.19,1042.38 1381.37,1043.89"/>
    </edge>
    <edge id=":1_25" function="internal">
        <lane id=":1_25_0" index="0" speed="3.92" length="3.31" shape="1367.65,1040.83 1369.08,1041.87 1369.54,1042.87 1369.32,1043.25"/>
    </edge>
    <edge id=":1_26" function="internal">
        <lane id=":1_26_0" index="0" speed="13.48" length="17.02" shape="1388.71,1044.28 1393.54,1050.29 1395.62,1059.37"/>
    </edge>
    <edge id=":1_27" function="internal">
        <lane id=":1_27_0" index="0" speed="12.65" length="20.37" shape="1381.37,1043.89 1385.84,1046.01 1390.58,1051.72 1392.42,1059.51"/>
    </edge>
    <edge id=":1_28" function="internal">
        <lane id=":1_28_0" index="0" speed="3.92" length="2.43" shape="1369.32,1043.25 1369.01,1043.83 1367.49,1044.76"/>
    </edge>
    <edge id=":2_0" function="internal">
        <lane id=":2_0_0" index="0" speed="6.80" length="10.11" shape="1362.62,727.94 1362.12,724.93 1360.96,722.84 1359.14,721.66 1356.66,721.40"/>
    </edge>
    <edge id=":2_1" function="internal">
        <lane id=":2_1_0" index="0" speed="17.00" length="27.69" shape="1362.62,727.94 1362.71,719.76 1363.53,714.16 1364.33,708.57 1364.39,700.39"/>
        <lane id=":2_1_1" index="1" speed="17.00" length="27.69" shape="1365.82,727.79 1365.91,719.60 1366.72,714.00 1367.52,708.40 1367.58,700.21"/>
        <lane id=":2_1_2" index="2" speed="17.00" length="27.69" shape="1369.01,727.63 1369.10,719.43 1369.92,713.83 1370.72,708.23 1370.78,700.04"/>
    </edge>
    <edge id=":2_4" function="internal">
        <lane id=":2_4_0" index="0" speed="10.99" length="27.78" shape="1372.21,727.47 1373.05,720.61 1376.34,715.58 1382.07,712.39 1390.26,711.03"/>
    </edge>
    <edge id=":2_5" function="internal">
        <lane id=":2_5_0" index="0" speed="3.65" length="4.67" shape="1372.21,727.47 1372.95,726.23 1373.73,725.79 1374.55,726.15 1375.41,727.31"/>
    </edge>
    <edge id=":2_6" function="internal">
        <lane id=":2_6_0" index="0" speed="15.45" length="34.11" shape="1390.73,720.96 1356.66,721.40"/>
        <lane id=":2_6_1" index="1" speed="15.45" length="34.11" shape="1390.58,717.76 1356.43,718.21"/>
    </edge>
    <edge id=":2_8" function="internal">
        <lane id=":2_8_0" index="0" speed="11.03" length="9.24" shape="1390.43,714.56 1382.15,713.99 1381.29,713.62"/>
    </edge>
    <edge id=":2_9" function="internal">
        <lane id=":2_9_0" index="0" speed="3.78" length="2.58" shape="1390.43,714.56 1389.07,713.74 1388.58,712.88"/>
    </edge>
    <edge id=":2_19" function="internal">
        <lane id=":2_19_0" index="0" speed="11.03" length="18.51" shape="1381.29,713.62 1376.11,711.38 1372.32,706.73 1370.78,700.04"/>
    </edge>
    <edge id=":2_20" function="internal">
        <lane id=":2_20_0" index="0" speed="3.78" length="2.58" shape="1388.58,712.88 1388.98,711.98 1390.26,711.03"/>
    </edge>
    <edge id=":2_10" function="internal">
        <lane id=":2_10_0" index="0" allow="bus" speed="17.00" length="27.75" shape="1383.58,699.34 1383.51,707.55 1382.70,713.17 1381.89,718.78 1381.80,726.99"/>
        <lane id=":2_10_1" index="1" disallow="bus" speed="17.00" length="27.75" shape="1380.38,699.52 1380.32,707.72 1379.51,713.33 1378.69,718.94 1378.60,727.15"/>
        <lane id=":2_10_2" index="2" disallow="bus" speed="17.00" length="27.75" shape="1377.19,699.69 1377.12,707.89 1376.31,713.50 1375.50,719.11 1375.41,727.31"/>
    </edge>
    <edge id=":2_13" function="internal">
        <lane id=":2_13_0" index="0" disallow="bus" speed="11.28" length="9.67" shape="1373.99,699.87 1373.23,707.41 1372.19,709.23"/>
    </edge>
    <edge id=":2_14" function="internal">
        <lane id=":2_14_0" index="0" disallow="bus" speed="3.66" length="2.46" shape="1373.99,699.87 1373.25,701.11 1372.47,701.56 1372.37,701.51"/>
    </edge>
    <edge id=":2_21" function="internal">
        <lane id=":2_21_0" index="0" disallow="bus" speed="11.28" length="19.16" shape="1372.19,709.23 1370.05,712.98 1364.45,716.58 1356.43,718.21"/>
    </edge>
    <edge id=":2_22" function="internal">
        <lane id=":2_22_0" index="0" disallow="bus" speed="3.66" length="2.24" shape="1372.37,701.51 1371.65,701.20 1370.78,700.04"/>
    </edge>
    <edge id=":2_15" function="internal">
        <lane id=":2_15_0" index="0" speed="7.81" length="13.32" shape="1355.75,708.35 1359.68,707.63 1362.43,706.06 1364.00,703.64 1364.39,700.39"/>
    </edge>
    <edge id=":2_16" function="internal">
        <lane id=":2_16_0" index="0" speed="15.45" length="34.47" shape="1355.97,711.55 1365.49,710.14 1372.96,707.98 1380.44,705.87 1389.96,704.64"/>
        <lane id=":2_16_1" index="1" speed="15.45" length="34.47" shape="1355.97,711.55 1390.11,707.84"/>
        <lane id=":2_16_2" index="2" speed="15.45" length="34.47" shape="1356.19,714.74 1390.26,711.03"/>
    </edge>
    <edge id=":3_0" function="internal">
        <lane id=":3_0_0" index="0" speed="8.44" length="15.82" shape="1337.19,201.23 1336.36,196.87 1334.41,193.81 1331.34,192.07 1327.14,191.63"/>
    </edge>
    <edge id=":3_1" function="internal">
        <lane id=":3_1_0" index="0" allow="bus" speed="17.00" length="33.74" shape="1337.19,201.23 1336.63,167.42"/>
        <lane id=":3_1_1" index="1" disallow="bus" speed="17.00" length="33.74" shape="1340.39,201.06 1339.83,167.32"/>
        <lane id=":3_1_2" index="2" disallow="bus" speed="17.00" length="33.74" shape="1343.58,200.88 1343.03,167.22"/>
    </edge>
    <edge id=":3_4" function="internal">
        <lane id=":3_4_0" index="0" disallow="bus" speed="11.42" length="30.45" shape="1346.78,200.71 1347.50,192.30 1350.70,186.21 1356.39,182.43 1364.57,180.96"/>
    </edge>
    <edge id=":3_5" function="internal">
        <lane id=":3_5_0" index="0" disallow="bus" speed="3.70" length="4.87" shape="1346.78,200.71 1347.54,199.41 1348.35,198.95 1349.21,199.32 1350.11,200.52"/>
    </edge>
    <edge id=":3_6" function="internal">
        <lane id=":3_6_0" index="0" speed="8.02" length="14.47" shape="1364.90,190.74 1361.03,191.44 1358.35,193.25 1356.83,196.16 1356.50,200.17"/>
    </edge>
    <edge id=":3_7" function="internal">
        <lane id=":3_7_0" index="0" speed="13.89" length="37.78" shape="1364.90,190.74 1327.14,191.63"/>
        <lane id=":3_7_1" index="1" speed="13.89" length="37.78" shape="1364.79,187.54 1326.99,188.44"/>
    </edge>
    <edge id=":3_9" function="internal">
        <lane id=":3_9_0" index="0" speed="11.67" length="9.17" shape="1364.68,184.34 1355.55,183.55"/>
    </edge>
    <edge id=":3_10" function="internal">
        <lane id=":3_10_0" index="0" speed="3.72" length="2.47" shape="1364.68,184.34 1363.38,183.54 1362.93,182.71"/>
    </edge>
    <edge id=":3_19" function="internal">
        <lane id=":3_19_0" index="0" speed="11.67" length="22.26" shape="1355.55,183.55 1355.41,183.54 1348.72,180.42 1344.59,174.98 1343.03,167.22"/>
    </edge>
    <edge id=":3_20" function="internal">
        <lane id=":3_20_0" index="0" speed="3.72" length="2.47" shape="1362.93,182.71 1363.33,181.85 1364.57,180.96"/>
    </edge>
    <edge id=":3_11" function="internal">
        <lane id=":3_11_0" index="0" speed="8.38" length="15.68" shape="1355.97,166.82 1356.63,171.71 1358.27,175.16 1360.88,177.18 1364.46,177.76"/>
    </edge>
    <edge id=":3_12" function="internal">
        <lane id=":3_12_0" index="0" allow="bus" speed="17.00" length="33.43" shape="1355.97,166.82 1356.50,200.17"/>
        <lane id=":3_12_1" index="1" disallow="bus" speed="17.00" length="33.43" shape="1352.77,166.92 1353.30,200.35"/>
        <lane id=":3_12_2" index="2" disallow="bus" speed="17.00" length="33.43" shape="1349.57,167.02 1350.11,200.52"/>
    </edge>
    <edge id=":3_15" function="internal">
        <lane id=":3_15_0" index="0" disallow="bus" speed="11.99" length="10.30" shape="1346.37,167.12 1345.40,176.09 1344.80,177.21"/>
    </edge>
    <edge id=":3_21" function="internal">
        <lane id=":3_21_0" index="0" disallow="bus" speed="11.99" length="22.44" shape="1344.80,177.21 1341.85,182.64 1335.71,186.75 1326.99,188.44"/>
    </edge>
    <edge id=":3_16" function="internal">
        <lane id=":3_16_0" index="0" speed="8.80" length="17.18" shape="1326.54,178.67 1331.08,177.78 1334.28,175.61 1336.13,172.16 1336.63,167.42"/>
    </edge>
    <edge id=":3_17" function="internal">
        <lane id=":3_17_0" index="0" speed="13.89" length="37.97" shape="1326.69,181.87 1364.46,177.76"/>
        <lane id=":3_17_1" index="1" speed="13.89" length="37.97" shape="1326.84,185.07 1364.57,180.96"/>
    </edge>
    <edge id=":4_0" function="internal">
        <lane id=":4_0_0" index="0" speed="17.00" length="39.25" shape="1323.24,-101.77 1321.25,-141.01"/>
        <lane id=":4_0_1" index="1" speed="17.00" length="39.25" shape="1326.43,-101.91 1324.44,-141.11"/>
        <lane id=":4_0_2" index="2" speed="17.00" length="39.25" shape="1329.63,-102.05 1327.64,-141.21"/>
    </edge>
    <edge id=":4_3" function="internal">
        <lane id=":4_3_0" index="0" speed="11.92" length="32.77" shape="1332.83,-102.19 1333.37,-112.63 1336.12,-120.20 1341.09,-124.90 1348.28,-126.73"/>
    </edge>
    <edge id=":4_4" function="internal">
        <lane id=":4_4_0" index="0" speed="4.02" length="6.14" shape="1332.83,-102.19 1333.81,-103.81 1334.84,-104.38 1335.91,-103.90 1337.03,-102.37"/>
    </edge>
    <edge id=":4_5" function="internal">
        <lane id=":4_5_0" index="0" speed="17.00" length="32.40" shape="1349.10,-109.39 1316.70,-107.15"/>
        <lane id=":4_5_1" index="1" speed="17.00" length="32.40" shape="1348.95,-112.59 1316.60,-110.35"/>
        <lane id=":4_5_2" index="2" speed="17.00" length="32.40" shape="1348.79,-115.78 1316.50,-113.55"/>
        <lane id=":4_5_3" index="3" speed="17.00" length="32.40" shape="1348.64,-118.98 1316.40,-116.75"/>
    </edge>
    <edge id=":4_9" function="internal">
        <lane id=":4_9_0" index="0" speed="17.00" length="39.07" shape="1342.02,-141.67 1343.42,-102.65"/>
        <lane id=":4_9_1" index="1" speed="17.00" length="39.07" shape="1338.82,-141.57 1340.23,-102.51"/>
    </edge>
    <edge id=":4_11" function="internal">
        <lane id=":4_11_0" index="0" speed="12.85" length="38.35" shape="1335.63,-141.47 1334.78,-129.49 1331.31,-120.84 1325.21,-115.53 1316.50,-113.55"/>
    </edge>
    <edge id=":4_12" function="internal">
        <lane id=":4_12_0" index="0" speed="11.98" length="33.21" shape="1332.43,-141.37 1331.73,-130.79 1328.83,-123.16 1323.72,-118.48 1316.40,-116.75"/>
    </edge>
    <edge id=":4_13" function="internal">
        <lane id=":4_13_0" index="0" speed="4.21" length="6.99" shape="1332.43,-141.37 1331.29,-139.54 1330.11,-138.90 1328.90,-139.46 1327.64,-141.21"/>
    </edge>
    <edge id=":4_14" function="internal">
        <lane id=":4_14_0" index="0" speed="17.00" length="32.10" shape="1315.83,-134.96 1347.83,-136.31"/>
        <lane id=":4_14_1" index="1" speed="17.00" length="32.10" shape="1315.93,-131.76 1347.98,-133.12"/>
        <lane id=":4_14_2" index="2" speed="17.00" length="32.10" shape="1316.03,-128.56 1348.13,-129.92"/>
        <lane id=":4_14_3" index="3" speed="17.00" length="32.10" shape="1316.13,-125.36 1348.28,-126.73"/>
    </edge>
    <edge id=":5_0" function="internal">
        <lane id=":5_0_0" index="0" speed="13.89" length="26.67" shape="535.01,219.58 534.06,212.81 532.28,206.98 529.74,201.36 526.55,195.23"/>
        <lane id=":5_0_1" index="1" speed="13.89" length="26.67" shape="538.20,219.37 537.20,212.40 535.29,206.13 532.63,200.07 529.38,193.74"/>
    </edge>
    <edge id=":5_2" function="internal">
        <lane id=":5_2_0" index="0" speed="9.43" length="6.21" shape="538.20,219.37 538.68,214.03 539.10,213.29"/>
    </edge>
    <edge id=":5_3" function="internal">
        <lane id=":5_3_0" index="0" speed="3.65" length="2.34" shape="538.20,219.37 538.92,218.11 539.69,217.66"/>
    </edge>
    <edge id=":5_18" function="internal">
        <lane id=":5_18_0" index="0" speed="9.43" length="14.18" shape="539.10,213.29 540.91,210.12 544.89,207.64 550.63,206.60"/>
    </edge>
    <edge id=":5_19" function="internal">
        <lane id=":5_19_0" index="0" speed="3.65" length="2.34" shape="539.69,217.66 540.52,218.01 541.40,219.15"/>
    </edge>
    <edge id=":5_4" function="internal">
        <lane id=":5_4_0" index="0" speed="13.89" length="27.52" shape="550.94,212.99 523.41,214.02"/>
        <lane id=":5_4_1" index="1" speed="13.89" length="27.52" shape="550.78,209.79 523.32,210.82"/>
    </edge>
    <edge id=":5_6" function="internal">
        <lane id=":5_6_0" index="0" speed="13.50" length="7.33" shape="550.78,209.79 544.71,209.02 543.64,208.46"/>
    </edge>
    <edge id=":5_7" function="internal">
        <lane id=":5_7_0" index="0" speed="3.65" length="2.34" shape="550.78,209.79 549.55,209.05 549.11,208.27"/>
    </edge>
    <edge id=":5_20" function="internal">
        <lane id=":5_20_0" index="0" speed="13.50" length="20.93" shape="543.64,208.46 539.12,206.09 534.01,201.00 529.38,193.74"/>
    </edge>
    <edge id=":5_21" function="internal">
        <lane id=":5_21_0" index="0" speed="3.65" length="2.34" shape="549.11,208.27 549.47,207.46 550.63,206.60"/>
    </edge>
    <edge id=":5_8" function="internal">
        <lane id=":5_8_0" index="0" speed="11.27" length="19.54" shape="537.91,189.25 541.52,195.53 544.82,199.99 547.80,202.61 550.47,203.40"/>
    </edge>
    <edge id=":5_9" function="internal">
        <lane id=":5_9_0" index="0" speed="13.89" length="29.37" shape="535.08,190.74 539.38,199.30 542.17,206.04 543.79,212.18 544.59,218.94"/>
        <lane id=":5_9_1" index="1" speed="13.89" length="29.37" shape="532.25,192.23 536.37,200.35 539.05,206.67 540.61,212.51 541.40,219.15"/>
    </edge>
    <edge id=":5_11" function="internal">
        <lane id=":5_11_0" index="0" speed="9.26" length="8.72" shape="532.25,192.23 534.71,199.37 534.58,200.53"/>
    </edge>
    <edge id=":5_12" function="internal">
        <lane id=":5_12_0" index="0" speed="3.67" length="2.37" shape="532.25,192.23 532.10,193.68 531.57,194.42"/>
    </edge>
    <edge id=":5_22" function="internal">
        <lane id=":5_22_0" index="0" speed="9.26" length="17.36" shape="534.58,200.53 534.07,205.21 530.29,209.21 523.32,210.82"/>
    </edge>
    <edge id=":5_23" function="internal">
        <lane id=":5_23_0" index="0" speed="3.67" length="2.37" shape="531.57,194.42 530.66,194.44 529.38,193.74"/>
    </edge>
    <edge id=":5_13" function="internal">
        <lane id=":5_13_0" index="0" speed="5.74" length="9.18" shape="523.04,201.23 525.72,200.78 527.20,199.63 527.48,197.78 526.55,195.23"/>
    </edge>
    <edge id=":5_14" function="internal">
        <lane id=":5_14_0" index="0" speed="13.89" length="27.38" shape="523.14,204.43 550.47,203.40"/>
        <lane id=":5_14_1" index="1" speed="13.89" length="27.38" shape="523.23,207.63 550.63,206.60"/>
    </edge>
    <edge id=":5_16" function="internal">
        <lane id=":5_16_0" index="0" speed="10.43" length="9.68" shape="523.23,207.63 530.88,208.16 532.76,208.87"/>
    </edge>
    <edge id=":5_17" function="internal">
        <lane id=":5_17_0" index="0" speed="3.65" length="2.34" shape="523.23,207.63 524.45,208.39 524.87,209.18"/>
    </edge>
    <edge id=":5_24" function="internal">
        <lane id=":5_24_0" index="0" speed="10.43" length="14.44" shape="532.76,208.87 536.45,210.26 539.96,213.92 541.40,219.15"/>
    </edge>
    <edge id=":5_25" function="internal">
        <lane id=":5_25_0" index="0" speed="3.65" length="2.34" shape="524.87,209.18 524.50,209.99 523.32,210.82"/>
    </edge>
    <edge id=":6_0" function="internal">
        <lane id=":6_0_0" index="0" speed="6.59" length="9.10" shape="692.66,-99.56 692.27,-102.03 691.19,-103.80 689.43,-104.87 686.99,-105.24"/>
    </edge>
    <edge id=":6_1" function="internal">
        <lane id=":6_1_0" index="0" disallow="bus coach truck trailer" speed="13.89" length="42.71" shape="695.86,-99.62 696.55,-142.33"/>
    </edge>
    <edge id=":6_2" function="internal">
        <lane id=":6_2_0" index="0" speed="12.40" length="22.06" shape="695.86,-99.62 696.62,-112.24 699.46,-121.22"/>
    </edge>
    <edge id=":6_3" function="internal">
        <lane id=":6_3_0" index="0" speed="11.51" length="12.45" shape="699.06,-99.68 699.64,-110.86 699.99,-112.07"/>
    </edge>
    <edge id=":6_4" function="internal">
        <lane id=":6_4_0" index="0" speed="3.65" length="2.34" shape="699.06,-99.68 699.84,-100.90 700.63,-101.31"/>
    </edge>
    <edge id=":6_23" function="internal">
        <lane id=":6_23_0" index="0" speed="12.40" length="14.46" shape="699.46,-121.22 704.39,-126.56 711.39,-128.24"/>
    </edge>
    <edge id=":6_24" function="internal">
        <lane id=":6_24_0" index="0" speed="11.51" length="18.88" shape="699.99,-112.07 701.88,-118.81 705.78,-123.54 711.33,-125.04"/>
    </edge>
    <edge id=":6_25" function="internal">
        <lane id=":6_25_0" index="0" speed="3.65" length="2.34" shape="700.63,-101.31 701.44,-100.93 702.26,-99.75"/>
    </edge>
    <edge id=":6_5" function="internal">
        <lane id=":6_5_0" index="0" speed="6.41" length="9.02" shape="711.01,-105.34 708.54,-105.04 706.79,-104.03 705.76,-102.28 705.46,-99.81"/>
    </edge>
    <edge id=":6_6" function="internal">
        <lane id=":6_6_0" index="0" speed="17.00" length="24.07" shape="711.01,-105.34 686.99,-105.24"/>
        <lane id=":6_6_1" index="1" speed="17.00" length="24.07" shape="711.06,-108.54 687.01,-108.44"/>
        <lane id=":6_6_2" index="2" speed="17.00" length="24.07" shape="711.11,-111.74 687.03,-111.64"/>
        <lane id=":6_6_3" index="3" speed="17.00" length="24.07" shape="711.17,-114.94 687.04,-114.84"/>
    </edge>
    <edge id=":6_10" function="internal">
        <lane id=":6_10_0" index="0" disallow="bus coach truck trailer" speed="12.32" length="34.39" shape="711.17,-114.94 704.77,-116.79 700.21,-121.97 697.47,-130.48 696.55,-142.33"/>
    </edge>
    <edge id=":6_11" function="internal">
        <lane id=":6_11_0" index="0" speed="5.72" length="14.76" shape="711.17,-114.94 707.42,-117.53 706.20,-120.07 707.50,-122.58 711.33,-125.04"/>
    </edge>
    <edge id=":6_12" function="internal">
        <lane id=":6_12_0" index="0" disallow="bus coach truck trailer" speed="8.41" length="15.55" shape="699.94,-142.31 700.67,-139.03 702.84,-136.66 706.44,-135.19 711.49,-134.64"/>
    </edge>
    <edge id=":6_13" function="internal">
        <lane id=":6_13_0" index="0" disallow="bus coach truck trailer" speed="15.45" length="42.63" shape="699.94,-142.31 702.26,-99.75"/>
    </edge>
    <edge id=":6_14" function="internal">
        <lane id=":6_14_0" index="0" disallow="bus coach truck trailer" speed="12.01" length="16.78" shape="699.94,-142.31 699.15,-130.27 697.88,-125.74"/>
    </edge>
    <edge id=":6_15" function="internal">
        <lane id=":6_15_0" index="0" disallow="bus coach truck trailer" speed="3.72" length="2.60" shape="699.94,-142.31 699.09,-141.05 698.24,-140.63 698.12,-140.68"/>
    </edge>
    <edge id=":6_26" function="internal">
        <lane id=":6_26_0" index="0" disallow="bus coach truck trailer" speed="12.01" length="16.67" shape="697.88,-125.74 696.74,-121.67 692.70,-116.53 687.04,-114.84"/>
    </edge>
    <edge id=":6_27" function="internal">
        <lane id=":6_27_0" index="0" disallow="bus coach truck trailer" speed="3.72" length="2.35" shape="698.12,-140.68 697.39,-141.05 696.55,-142.33"/>
    </edge>
    <edge id=":6_16" function="internal">
        <lane id=":6_16_0" index="0" disallow="bus coach truck trailer" speed="7.77" length="13.31" shape="687.16,-135.28 691.27,-135.72 694.20,-137.04 695.96,-139.25 696.55,-142.33"/>
    </edge>
    <edge id=":6_17" function="internal">
        <lane id=":6_17_0" index="0" speed="17.00" length="24.29" shape="687.16,-135.28 711.49,-134.64"/>
        <lane id=":6_17_1" index="1" speed="17.00" length="24.29" shape="687.14,-132.08 711.44,-131.44"/>
        <lane id=":6_17_2" index="2" speed="17.00" length="24.29" shape="687.12,-128.88 711.39,-128.24"/>
        <lane id=":6_17_3" index="3" speed="17.00" length="24.29" shape="687.10,-125.68 711.33,-125.04"/>
    </edge>
    <edge id=":6_21" function="internal">
        <lane id=":6_21_0" index="0" speed="12.11" length="16.27" shape="687.10,-125.68 693.55,-124.06 698.22,-119.20 699.19,-116.49"/>
    </edge>
    <edge id=":6_22" function="internal">
        <lane id=":6_22_0" index="0" speed="5.89" length="12.90" shape="687.10,-125.68 691.15,-122.94 692.49,-120.23 691.12,-117.52 689.49,-116.45"/>
    </edge>
    <edge id=":6_28" function="internal">
        <lane id=":6_28_0" index="0" speed="12.11" length="17.13" shape="699.19,-116.49 701.13,-111.09 702.26,-99.75"/>
    </edge>
    <edge id=":6_29" function="internal">
        <lane id=":6_29_0" index="0" speed="5.89" length="2.93" shape="689.49,-116.45 687.04,-114.84"/>
    </edge>
    <edge id=":7_0" function="internal">
        <lane id=":7_0_0" index="0" speed="7.23" length="11.50" shape="292.48,1068.00 291.97,1064.27 290.80,1061.65 288.98,1060.14 286.50,1059.74"/>
    </edge>
    <edge id=":7_1" function="internal">
        <lane id=":7_1_0" index="0" speed="12.50" length="35.91" shape="292.48,1068.00 292.63,1054.43 294.42,1044.66 297.84,1038.67 302.89,1036.47"/>
    </edge>
    <edge id=":7_2" function="internal">
        <lane id=":7_2_0" index="0" speed="11.65" length="31.04" shape="295.68,1067.86 295.69,1055.69 296.93,1046.94 299.38,1041.60 303.06,1039.67"/>
    </edge>
    <edge id=":7_3" function="internal">
        <lane id=":7_3_0" index="0" speed="6.52" length="9.03" shape="304.21,1061.87 301.79,1062.33 300.09,1063.47 299.12,1065.26 298.87,1067.72"/>
    </edge>
    <edge id=":7_4" function="internal">
        <lane id=":7_4_0" index="0" speed="17.00" length="17.59" shape="304.05,1058.67 286.50,1059.74"/>
        <lane id=":7_4_1" index="1" speed="17.00" length="17.59" shape="303.88,1055.48 286.33,1056.55"/>
        <lane id=":7_4_2" index="2" speed="17.00" length="17.59" shape="303.71,1052.28 286.16,1053.35"/>
        <lane id=":7_4_3" index="3" speed="17.00" length="17.59" shape="303.55,1049.09 285.98,1050.16"/>
    </edge>
    <edge id=":7_8" function="internal">
        <lane id=":7_8_0" index="0" speed="17.00" length="17.63" shape="284.95,1031.06 302.56,1030.08"/>
        <lane id=":7_8_1" index="1" speed="17.00" length="17.63" shape="285.12,1034.25 302.73,1033.28"/>
        <lane id=":7_8_2" index="2" speed="17.00" length="17.63" shape="285.29,1037.45 302.89,1036.47"/>
        <lane id=":7_8_3" index="3" speed="17.00" length="17.63" shape="285.47,1040.64 303.06,1039.67"/>
    </edge>
    <edge id=":7_12" function="internal">
        <lane id=":7_12_0" index="0" speed="11.40" length="30.25" shape="285.64,1043.84 291.03,1045.06 295.04,1049.45 297.65,1057.00 298.87,1067.72"/>
    </edge>
    <edge id=":7_13" function="internal">
        <lane id=":7_13_0" index="0" speed="4.70" length="9.24" shape="285.64,1043.84 288.09,1045.29 288.97,1046.83 288.27,1048.45 285.98,1050.16"/>
    </edge>
    <edge id=":8_0" function="internal">
        <lane id=":8_0_0" index="0" speed="17.00" length="12.69" shape="-515.26,-105.16 -518.94,-105.72 -521.35,-106.82 -523.77,-107.89 -527.45,-108.38"/>
        <lane id=":8_0_1" index="1" speed="17.00" length="12.69" shape="-515.27,-108.36 -518.94,-108.92 -521.36,-110.02 -523.77,-111.09 -527.44,-111.58"/>
        <lane id=":8_0_2" index="2" speed="17.00" length="12.69" shape="-515.29,-111.56 -518.95,-112.12 -521.36,-113.22 -523.77,-114.29 -527.44,-114.78"/>
        <lane id=":8_0_3" index="3" speed="17.00" length="12.69" shape="-515.34,-114.76 -518.99,-115.32 -521.39,-116.42 -523.78,-117.49 -527.43,-117.98"/>
    </edge>
    <edge id=":8_4" function="internal">
        <lane id=":8_4_0" index="0" speed="5.54" length="11.28" shape="-515.31,-117.96 -518.83,-120.29 -520.01,-122.62 -518.85,-124.97 -517.33,-125.99"/>
    </edge>
    <edge id=":8_10" function="internal">
        <lane id=":8_10_0" index="0" speed="5.54" length="2.39" shape="-517.33,-125.99 -515.35,-127.32"/>
    </edge>
    <edge id=":8_5" function="internal">
        <lane id=":8_5_0" index="0" speed="17.00" length="12.67" shape="-527.40,-140.34 -523.77,-139.79 -521.39,-138.61 -519.02,-137.44 -515.38,-136.92"/>
        <lane id=":8_5_1" index="1" speed="17.00" length="12.67" shape="-527.41,-137.14 -523.77,-136.59 -521.39,-135.41 -519.01,-134.24 -515.37,-133.72"/>
        <lane id=":8_5_2" index="2" speed="17.00" length="12.67" shape="-527.41,-133.94 -523.77,-133.39 -521.38,-132.21 -519.00,-131.04 -515.36,-130.52"/>