<?xml version="1.0" encoding="UTF-8"?>

<!-- generated on 12/16/20 19:44:08 by Eclipse SUMO netedit Version 1.8.0
<configuration xmlns:xsi="http://www.w3.org/2001/XMLSchema-instance" xsi:noNamespaceSchemaLocation="http://sumo.dlr.de/xsd/netconvertConfiguration.xsd">

    <input>
        <sumo-net-file value="D:\MEGA\Greenline\Greenline_sumo\greenline_OD\greenline.net.xml"/>
    </input>

    <output>
        <output-file value="D:\MEGA\Greenline\Greenline_sumo\greenline_OD\greenline.net.xml"/>
    </output>

    <processing>
        <geometry.min-radius.fix.railways value="false"/>
        <geometry.max-grade.fix value="false"/>
        <offset.disable-normalization value="true"/>
        <lefthand value="false"/>
    </processing>

    <junctions>
        <no-turnarounds value="true"/>
        <junctions.corner-detail value="5"/>
        <junctions.limit-turn-speed value="5.5"/>
        <rectangular-lane-cut value="false"/>
    </junctions>

    <pedestrian>
        <walkingareas value="false"/>
    </pedestrian>

    <report>
        <aggregate-warnings value="5"/>
    </report>

</configuration>
-->

<net version="1.6" junctionCornerDetail="5" limitTurnSpeed="5.50" xmlns:xsi="http://www.w3.org/2001/XMLSchema-instance" xsi:noNamespaceSchemaLocation="http://sumo.dlr.de/xsd/net_file.xsd">

    <location netOffset="0.00,0.00" convBoundary="-624.18,-343.04,1719.92,1290.62" origBoundary="-10000000000.00,-10000000000.00,10000000000.00,10000000000.00" projParameter="!"/>

    <edge id=":1_0" function="internal">
        <lane id=":1_0_0" index="0" speed="17.00" length="46.07" shape="1375.37,1064.84 1373.54,1018.73"/>
        <lane id=":1_0_1" index="1" speed="17.00" length="46.07" shape="1378.57,1064.72 1376.74,1018.66"/>
        <lane id=":1_0_2" index="2" speed="17.00" length="46.07" shape="1381.77,1064.59 1379.94,1018.59"/>
        <lane id=":1_0_3" index="3" speed="17.00" length="46.07" shape="1384.96,1064.47 1383.14,1018.52"/>
    </edge>
    <edge id=":1_4" function="internal">
        <lane id=":1_4_0" index="0" speed="13.33" length="44.85" shape="1384.96,1064.47 1385.17,1050.68 1388.14,1040.82 1394.96,1035.10 1406.75,1033.76"/>
    </edge>
    <edge id=":1_5" function="internal">
        <lane id=":1_5_0" index="0" speed="12.47" length="39.10" shape="1388.16,1064.34 1388.31,1052.19 1390.80,1043.39 1396.57,1038.22 1406.55,1036.95"/>
    </edge>
    <edge id=":1_6" function="internal">
        <lane id=":1_6_0" index="0" speed="4.33" length="7.47" shape="1388.16,1064.34 1389.36,1062.37 1390.62,1061.69 1391.92,1062.27 1393.27,1064.14"/>
    </edge>
    <edge id=":1_7" function="internal">
        <lane id=":1_7_0" index="0" speed="17.00" length="38.95" shape="1405.21,1058.34 1366.60,1054.71"/>
        <lane id=":1_7_1" index="1" speed="17.00" length="38.95" shape="1405.41,1055.14 1366.74,1051.52"/>
        <lane id=":1_7_2" index="2" speed="17.00" length="38.95" shape="1405.61,1051.95 1366.88,1048.32"/>
        <lane id=":1_7_3" index="3" speed="17.00" length="38.95" shape="1405.61,1051.95 1394.07,1050.78 1386.31,1048.67 1378.56,1046.49 1367.02,1045.12"/>
    </edge>
    <edge id=":1_11" function="internal">
        <lane id=":1_11_0" index="0" speed="13.57" length="41.20" shape="1405.81,1048.75 1398.22,1045.19 1389.77,1036.92 1382.87,1027.02 1379.94,1018.59"/>
    </edge>
    <edge id=":1_12" function="internal">
        <lane id=":1_12_0" index="0" speed="12.87" length="36.99" shape="1406.01,1045.55 1398.92,1042.49 1391.50,1035.29 1385.61,1026.46 1383.14,1018.52"/>
    </edge>
    <edge id=":1_13" function="internal">
        <lane id=":1_13_0" index="0" speed="5.36" length="12.59" shape="1406.01,1045.55 1402.92,1043.20 1401.98,1040.98 1403.19,1038.90 1406.55,1036.95"/>
    </edge>
    <edge id=":1_14" function="internal">
        <lane id=":1_14_0" index="0" speed="17.00" length="45.78" shape="1399.61,1018.17 1399.67,1063.89"/>
        <lane id=":1_14_1" index="1" speed="17.00" length="45.78" shape="1396.41,1018.24 1396.47,1064.01"/>
        <lane id=":1_14_2" index="2" speed="17.00" length="45.78" shape="1393.21,1018.30 1393.27,1064.14"/>
    </edge>
    <edge id=":1_17" function="internal">
        <lane id=":1_17_0" index="0" speed="13.35" length="43.62" shape="1390.01,1018.37 1388.87,1031.88 1384.63,1041.37 1377.31,1046.85 1366.88,1048.32"/>
    </edge>
    <edge id=":1_18" function="internal">
        <lane id=":1_18_0" index="0" speed="12.52" length="38.23" shape="1386.81,1018.44 1385.84,1030.46 1382.23,1038.91 1375.95,1043.80 1367.02,1045.12"/>
    </edge>
    <edge id=":1_19" function="internal">
        <lane id=":1_19_0" index="0" speed="3.83" length="5.36" shape="1386.81,1018.44 1385.92,1019.84 1385.01,1020.32 1384.09,1019.88 1383.14,1018.52"/>
    </edge>
    <edge id=":1_20" function="internal">
        <lane id=":1_20_0" index="0" speed="17.00" length="39.51" shape="1367.96,1024.19 1380.27,1025.41 1389.24,1027.34 1397.32,1029.29 1406.95,1030.56"/>
        <lane id=":1_20_1" index="1" speed="17.00" length="39.51" shape="1367.82,1027.38 1380.11,1028.60 1389.06,1030.54 1397.12,1032.48 1406.75,1033.76"/>
        <lane id=":1_20_2" index="2" speed="17.00" length="39.51" shape="1367.67,1030.58 1379.94,1031.80 1388.88,1033.73 1396.92,1035.68 1406.55,1036.95"/>
    </edge>
    <edge id=":1_23" function="internal">
        <lane id=":1_23_0" index="0" speed="14.08" length="43.27" shape="1367.53,1033.78 1375.74,1037.41 1385.19,1045.71 1393.04,1055.60 1396.47,1064.01"/>
    </edge>
    <edge id=":1_24" function="internal">
        <lane id=":1_24_0" index="0" speed="13.40" length="39.05" shape="1367.39,1036.97 1375.11,1040.13 1383.51,1047.37 1390.32,1056.20 1393.27,1064.14"/>
    </edge>
    <edge id=":1_25" function="internal">
        <lane id=":1_25_0" index="0" speed="5.21" length="11.91" shape="1367.39,1036.97 1370.35,1039.15 1371.28,1041.23 1370.17,1043.22 1367.02,1045.12"/>
    </edge>
    <edge id=":2_0" function="internal">
        <lane id=":2_0_0" index="0" speed="7.18" length="11.42" shape="1362.55,727.72 1362.04,724.02 1360.87,721.44 1359.05,719.96 1356.56,719.59"/>
    </edge>
    <edge id=":2_1" function="internal">
        <lane id=":2_1_0" index="0" speed="17.00" length="27.39" shape="1362.55,727.72 1362.71,719.62 1363.57,714.10 1364.42,708.57 1364.54,700.48"/>
        <lane id=":2_1_1" index="1" speed="17.00" length="27.39" shape="1365.74,727.58 1365.90,719.48 1366.77,713.95 1367.62,708.42 1367.74,700.33"/>
        <lane id=":2_1_2" index="2" speed="17.00" length="27.39" shape="1368.94,727.44 1369.10,719.34 1369.96,713.81 1370.81,708.28 1370.93,700.18"/>
    </edge>
    <edge id=":2_4" function="internal">
        <lane id=":2_4_0" index="0" speed="10.90" length="27.15" shape="1372.14,727.31 1373.01,720.62 1376.26,715.73 1381.88,712.62 1389.88,711.31"/>
    </edge>
    <edge id=":2_5" function="internal">
        <lane id=":2_5_0" index="0" speed="3.66" length="4.69" shape="1372.14,727.31 1372.89,726.07 1373.67,725.63 1374.49,726.00 1375.35,727.17"/>
    </edge>
    <edge id=":2_6" function="internal">
        <lane id=":2_6_0" index="0" speed="7.34" length="11.75" shape="1390.31,720.91 1386.47,721.44 1383.76,722.61 1382.19,724.43 1381.74,726.90"/>
    </edge>
    <edge id=":2_7" function="internal">
        <lane id=":2_7_0" index="0" speed="15.45" length="33.84" shape="1390.17,717.72 1356.35,716.40"/>
    </edge>
    <edge id=":2_8" function="internal">
        <lane id=":2_8_0" index="0" speed="10.89" length="27.14" shape="1390.02,714.52 1381.94,713.93 1376.06,711.34 1372.39,706.76 1370.93,700.18"/>
    </edge>
    <edge id=":2_9" function="internal">
        <lane id=":2_9_0" index="0" speed="3.66" length="4.70" shape="1390.02,714.52 1388.78,713.77 1388.34,712.99 1388.71,712.16 1389.88,711.31"/>
    </edge>
    <edge id=":2_10" function="internal">
        <lane id=":2_10_0" index="0" speed="17.00" length="27.44" shape="1383.73,699.58 1383.61,707.69 1382.75,713.24 1381.89,718.78 1381.74,726.90"/>
        <lane id=":2_10_1" index="1" speed="17.00" length="27.44" shape="1380.54,699.73 1380.41,707.84 1379.56,713.38 1378.70,718.92 1378.54,727.03"/>
        <lane id=":2_10_2" index="2" speed="17.00" length="27.44" shape="1377.34,699.88 1377.21,707.99 1376.36,713.52 1375.50,719.06 1375.35,727.17"/>
    </edge>
    <edge id=":2_13" function="internal">
        <lane id=":2_13_0" index="0" speed="11.01" length="8.35" shape="1374.14,700.03 1373.29,706.73 1372.42,708.06"/>
    </edge>
    <edge id=":2_14" function="internal">
        <lane id=":2_14_0" index="0" speed="3.66" length="2.46" shape="1374.14,700.03 1373.40,701.27 1372.61,701.71 1372.51,701.66"/>
    </edge>
    <edge id=":2_21" function="internal">
        <lane id=":2_21_0" index="0" speed="11.01" length="19.02" shape="1372.42,708.06 1370.04,711.69 1364.40,714.91 1356.35,716.40"/>
    </edge>
    <edge id=":2_22" function="internal">
        <lane id=":2_22_0" index="0" speed="3.66" length="2.23" shape="1372.51,701.66 1371.79,701.34 1370.93,700.18"/>
    </edge>
    <edge id=":2_15" function="internal">
        <lane id=":2_15_0" index="0" speed="8.16" length="14.58" shape="1355.92,709.99 1359.85,709.17 1362.60,707.31 1364.16,704.42 1364.54,700.48"/>
    </edge>
    <edge id=":2_16" function="internal">
        <lane id=":2_16_0" index="0" speed="15.45" length="33.90" shape="1355.92,709.99 1389.58,704.91"/>
        <lane id=":2_16_1" index="1" speed="15.45" length="33.90" shape="1355.92,709.99 1389.73,708.11"/>
        <lane id=":2_16_2" index="2" speed="15.45" length="33.90" shape="1356.13,713.18 1389.88,711.31"/>
    </edge>
    <edge id=":2_19" function="internal">
        <lane id=":2_19_0" index="0" speed="10.80" length="27.16" shape="1356.13,713.18 1364.30,713.60 1370.22,716.07 1373.90,720.59 1375.35,727.17"/>
    </edge>
    <edge id=":2_20" function="internal">
        <lane id=":2_20_0" index="0" speed="3.66" length="4.72" shape="1356.13,713.18 1357.40,713.90 1357.85,714.68 1357.50,715.52 1356.35,716.40"/>
    </edge>
    <edge id=":3_0" function="internal">
        <lane id=":3_0_0" index="0" speed="8.05" length="14.19" shape="1336.33,201.36 1335.58,197.53 1333.80,194.85 1330.99,193.30 1327.14,192.89"/>
    </edge>
    <edge id=":3_1" function="internal">
        <lane id=":3_1_0" index="0" speed="17.00" length="33.88" shape="1336.33,201.36 1336.23,167.40"/>
        <lane id=":3_1_1" index="1" speed="17.00" length="33.88" shape="1339.52,201.19 1339.43,167.31"/>
        <lane id=":3_1_2" index="2" speed="17.00" length="33.88" shape="1342.72,201.02 1342.63,167.22"/>
    </edge>
    <edge id=":3_4" function="internal">
        <lane id=":3_4_0" index="0" speed="11.31" length="29.64" shape="1345.91,200.85 1346.79,193.53 1350.28,188.17 1356.41,184.79 1365.16,183.38"/>
    </edge>
    <edge id=":3_5" function="internal">
        <lane id=":3_5_0" index="0" speed="3.80" length="5.26" shape="1345.91,200.85 1346.74,199.46 1347.62,198.96 1348.54,199.37 1349.51,200.67"/>
    </edge>
    <edge id=":3_6" function="internal">
        <lane id=":3_6_0" index="0" speed="7.84" length="13.73" shape="1365.57,193.01 1361.20,193.61 1358.14,195.04 1356.37,197.28 1355.90,200.33"/>
    </edge>
    <edge id=":3_7" function="internal">
        <lane id=":3_7_0" index="0" speed="13.89" length="38.42" shape="1365.57,193.01 1327.14,192.89"/>
        <lane id=":3_7_1" index="1" speed="13.89" length="38.42" shape="1365.43,189.81 1327.03,189.69"/>
    </edge>
    <edge id=":3_9" function="internal">
        <lane id=":3_9_0" index="0" speed="12.10" length="10.40" shape="1365.30,186.61 1355.60,185.73 1355.01,185.43"/>
    </edge>
    <edge id=":3_10" function="internal">
        <lane id=":3_10_0" index="0" speed="3.66" length="2.36" shape="1365.30,186.61 1364.05,185.86 1363.61,185.07"/>
    </edge>
    <edge id=":3_22" function="internal">
        <lane id=":3_22_0" index="0" speed="12.10" length="23.68" shape="1355.01,185.43 1348.58,182.20 1344.26,176.03 1342.63,167.22"/>
    </edge>
    <edge id=":3_23" function="internal">
        <lane id=":3_23_0" index="0" speed="3.66" length="2.36" shape="1363.61,185.07 1363.98,184.24 1365.16,183.38"/>
    </edge>
    <edge id=":3_11" function="internal">
        <lane id=":3_11_0" index="0" speed="8.82" length="17.54" shape="1356.79,166.82 1357.49,172.79 1359.10,177.01 1361.61,179.47 1365.03,180.18"/>
    </edge>
    <edge id=":3_12" function="internal">
        <lane id=":3_12_0" index="0" speed="17.00" length="33.61" shape="1356.79,166.82 1355.90,200.33"/>
        <lane id=":3_12_1" index="1" speed="17.00" length="33.61" shape="1353.59,166.91 1352.70,200.50"/>
        <lane id=":3_12_2" index="2" speed="17.00" length="33.61" shape="1350.39,167.00 1349.51,200.67"/>
    </edge>
    <edge id=":3_15" function="internal">
        <lane id=":3_15_0" index="0" speed="12.23" length="13.86" shape="1347.19,167.09 1346.23,176.69 1344.26,180.41"/>
    </edge>
    <edge id=":3_16" function="internal">
        <lane id=":3_16_0" index="0" speed="4.14" length="4.15" shape="1347.19,167.09 1346.10,168.83 1344.98,169.43 1344.24,169.09"/>
    </edge>
    <edge id=":3_24" function="internal">
        <lane id=":3_24_0" index="0" speed="12.23" length="20.68" shape="1344.26,180.41 1342.55,183.66 1336.15,187.99 1327.03,189.69"/>
    </edge>
    <edge id=":3_25" function="internal">
        <lane id=":3_25_0" index="0" speed="4.14" length="2.52" shape="1344.24,169.09 1343.82,168.89 1342.63,167.22"/>
    </edge>
    <edge id=":3_17" function="internal">
        <lane id=":3_17_0" index="0" speed="9.35" length="19.49" shape="1326.75,181.87 1331.04,180.79 1334.06,178.01 1335.79,173.55 1336.23,167.40"/>
    </edge>
    <edge id=":3_18" function="internal">
        <lane id=":3_18_0" index="0" speed="13.89" length="38.33" shape="1326.75,181.87 1365.03,180.18"/>
        <lane id=":3_18_1" index="1" speed="13.89" length="38.33" shape="1326.86,185.06 1365.16,183.38"/>
    </edge>
    <edge id=":3_20" function="internal">
        <lane id=":3_20_0" index="0" speed="11.65" length="16.28" shape="1326.86,185.06 1336.44,185.65 1342.64,188.14"/>
    </edge>
    <edge id=":3_21" function="internal">
        <lane id=":3_21_0" index="0" speed="4.17" length="4.26" shape="1326.86,185.06 1328.64,186.16 1329.26,187.29 1328.89,188.09"/>
    </edge>
    <edge id=":3_26" function="internal">
        <lane id=":3_26_0" index="0" speed="11.65" length="14.89" shape="1342.64,188.14 1343.41,188.45 1347.77,193.45 1349.51,200.67"/>
    </edge>
    <edge id=":3_27" function="internal">
        <lane id=":3_27_0" index="0" speed="4.17" length="2.50" shape="1328.89,188.09 1328.72,188.47 1327.03,189.69"/>
    </edge>
    <edge id=":4_0" function="internal">
        <lane id=":4_0_0" index="0" speed="17.00" length="39.83" shape="1323.27,-101.05 1321.54,-140.83"/>
        <lane id=":4_0_1" index="1" speed="17.00" length="39.83" shape="1326.47,-101.18 1324.74,-140.97"/>
        <lane id=":4_0_2" index="2" speed="17.00" length="39.83" shape="1329.66,-101.31 1327.93,-141.11"/>
    </edge>
    <edge id=":4_3" function="internal">
        <lane id=":4_3_0" index="0" speed="12.37" length="35.58" shape="1329.66,-101.31 1331.27,-109.48 1335.81,-118.82 1341.87,-126.56 1348.06,-129.91"/>
    </edge>
    <edge id=":4_4" function="internal">
        <lane id=":4_4_0" index="0" speed="11.62" length="31.23" shape="1332.86,-101.44 1334.03,-109.09 1337.58,-117.29 1342.60,-123.89 1348.19,-126.71"/>
    </edge>
    <edge id=":4_5" function="internal">
        <lane id=":4_5_0" index="0" speed="4.02" length="6.12" shape="1332.86,-101.44 1333.84,-103.06 1334.87,-103.62 1335.94,-103.14 1337.05,-101.61"/>
    </edge>
    <edge id=":4_6" function="internal">
        <lane id=":4_6_0" index="0" speed="17.00" length="31.78" shape="1348.89,-109.39 1317.24,-106.43"/>
        <lane id=":4_6_1" index="1" speed="17.00" length="31.78" shape="1348.77,-112.59 1317.12,-109.63"/>
        <lane id=":4_6_2" index="2" speed="17.00" length="31.78" shape="1348.64,-115.79 1317.00,-112.82"/>
        <lane id=":4_6_3" index="3" speed="17.00" length="31.78" shape="1348.51,-118.98 1316.88,-116.02"/>
    </edge>
    <edge id=":4_10" function="internal">
        <lane id=":4_10_0" index="0" speed="17.00" length="39.94" shape="1342.09,-141.74 1343.45,-101.87"/>
        <lane id=":4_10_1" index="1" speed="17.00" length="39.94" shape="1338.89,-141.60 1340.25,-101.74"/>
        <lane id=":4_10_2" index="2" speed="17.00" length="39.94" shape="1338.89,-141.60 1337.05,-101.61"/>
    </edge>
    <edge id=":4_13" function="internal">
        <lane id=":4_13_0" index="0" speed="12.52" length="35.65" shape="1335.69,-141.46 1333.87,-133.27 1329.18,-123.91 1323.08,-116.16 1317.00,-112.82"/>
    </edge>
    <edge id=":4_14" function="internal">
        <lane id=":4_14_0" index="0" speed="11.75" length="31.27" shape="1332.49,-141.32 1331.11,-133.65 1327.42,-125.43 1322.36,-118.83 1316.88,-116.02"/>
    </edge>
    <edge id=":4_15" function="internal">
        <lane id=":4_15_0" index="0" speed="4.15" length="6.66" shape="1332.49,-141.32 1331.43,-139.56 1330.31,-138.94 1329.15,-139.46 1327.93,-141.11"/>
    </edge>
    <edge id=":4_16" function="internal">
        <lane id=":4_16_0" index="0" speed="17.00" length="31.67" shape="1316.18,-135.03 1347.80,-136.31"/>
        <lane id=":4_16_1" index="1" speed="17.00" length="31.67" shape="1316.30,-131.83 1347.93,-133.11"/>
        <lane id=":4_16_2" index="2" speed="17.00" length="31.67" shape="1316.42,-128.63 1348.06,-129.91"/>
        <lane id=":4_16_3" index="3" speed="17.00" length="31.67" shape="1316.54,-125.43 1348.19,-126.71"/>
    </edge>
    <edge id=":5_0" function="internal">
        <lane id=":5_0_0" index="0" speed="13.89" length="26.67" shape="535.01,219.58 534.06,212.81 532.28,206.98 529.74,201.36 526.55,195.23"/>
        <lane id=":5_0_1" index="1" speed="13.89" length="26.67" shape="538.20,219.37 537.20,212.40 535.29,206.13 532.63,200.07 529.38,193.74"/>
    </edge>
    <edge id=":5_2" function="internal">
        <lane id=":5_2_0" index="0" speed="9.43" length="6.21" shape="538.20,219.37 538.68,214.03 539.10,213.29"/>
    </edge>
    <edge id=":5_3" function="internal">
        <lane id=":5_3_0" index="0" speed="3.65" length="2.34" shape="538.20,219.37 538.92,218.11 539.69,217.66"/>
    </edge>
    <edge id=":5_18" function="internal">
        <lane id=":5_18_0" index="0" speed="9.43" length="14.18" shape="539.10,213.29 540.91,210.12 544.89,207.64 550.63,206.60"/>
    </edge>
    <edge id=":5_19" function="internal">
        <lane id=":5_19_0" index="0" speed="3.65" length="2.34" shape="539.69,217.66 540.52,218.01 541.40,219.15"/>
    </edge>
    <edge id=":5_4" function="internal">
        <lane id=":5_4_0" index="0" speed="13.89" length="27.52" shape="550.94,212.99 523.41,214.02"/>
        <lane id=":5_4_1" index="1" speed="13.89" length="27.52" shape="550.78,209.79 523.32,210.82"/>
    </edge>
    <edge id=":5_6" function="internal">
        <lane id=":5_6_0" index="0" speed="13.50" length="7.33" shape="550.78,209.79 544.71,209.02 543.64,208.46"/>
    </edge>
    <edge id=":5_7" function="internal">
        <lane id=":5_7_0" index="0" speed="3.65" length="2.34" shape="550.78,209.79 549.55,209.05 549.11,208.27"/>
    </edge>
    <edge id=":5_20" function="internal">
        <lane id=":5_20_0" index="0" speed="13.50" length="20.93" shape="543.64,208.46 539.12,206.09 534.01,201.00 529.38,193.74"/>
    </edge>
    <edge id=":5_21" function="internal">
        <lane id=":5_21_0" index="0" speed="3.65" length="2.34" shape="549.11,208.27 549.47,207.46 550.63,206.60"/>
    </edge>
    <edge id=":5_8" function="internal">
        <lane id=":5_8_0" index="0" speed="11.27" length="19.54" shape="537.91,189.25 541.52,195.53 544.82,199.99 547.80,202.61 550.47,203.40"/>
    </edge>
    <edge id=":5_9" function="internal">
        <lane id=":5_9_0" index="0" speed="13.89" length="29.37" shape="535.08,190.74 539.38,199.30 542.17,206.04 543.79,212.18 544.59,218.94"/>
        <lane id=":5_9_1" index="1" speed="13.89" length="29.37" shape="532.25,192.23 536.37,200.35 539.05,206.67 540.61,212.51 541.40,219.15"/>
    </edge>
    <edge id=":5_11" function="internal">
        <lane id=":5_11_0" index="0" speed="9.26" length="8.72" shape="532.25,192.23 534.71,199.37 534.58,200.53"/>
    </edge>
    <edge id=":5_12" function="internal">
        <lane id=":5_12_0" index="0" speed="3.67" length="2.37" shape="532.25,192.23 532.10,193.68 531.57,194.42"/>
    </edge>
    <edge id=":5_22" function="internal">
        <lane id=":5_22_0" index="0" speed="9.26" length="17.36" shape="534.58,200.53 534.07,205.21 530.29,209.21 523.32,210.82"/>
    </edge>
    <edge id=":5_23" function="internal">
        <lane id=":5_23_0" index="0" speed="3.67" length="2.37" shape="531.57,194.42 530.66,194.44 529.38,193.74"/>
    </edge>
    <edge id=":5_13" function="internal">
        <lane id=":5_13_0" index="0" speed="5.74" length="9.18" shape="523.04,201.23 525.72,200.78 527.20,199.63 527.48,197.78 526.55,195.23"/>
    </edge>
    <edge id=":5_14" function="internal">
        <lane id=":5_14_0" index="0" speed="13.89" length="27.38" shape="523.14,204.43 550.47,203.40"/>
        <lane id=":5_14_1" index="1" speed="13.89" length="27.38" shape="523.23,207.63 550.63,206.60"/>
    </edge>
    <edge id=":5_16" function="internal">
        <lane id=":5_16_0" index="0" speed="10.43" length="9.68" shape="523.23,207.63 530.88,208.16 532.76,208.87"/>
    </edge>
    <edge id=":5_17" function="internal">
        <lane id=":5_17_0" index="0" speed="3.65" length="2.34" shape="523.23,207.63 524.45,208.39 524.87,209.18"/>
    </edge>
    <edge id=":5_24" function="internal">
        <lane id=":5_24_0" index="0" speed="10.43" length="14.44" shape="532.76,208.87 536.45,210.26 539.96,213.92 541.40,219.15"/>
    </edge>
    <edge id=":5_25" function="internal">
        <lane id=":5_25_0" index="0" speed="3.65" length="2.34" shape="524.87,209.18 524.50,209.99 523.32,210.82"/>
    </edge>
    <edge id=":6_0" function="internal">
        <lane id=":6_0_0" index="0" speed="6.52" length="9.04" shape="695.86,-99.62 695.46,-102.07 694.38,-103.81 692.61,-104.83 690.16,-105.15"/>
    </edge>
    <edge id=":6_1" function="internal">
        <lane id=":6_1_0" index="0" speed="13.89" length="41.36" shape="695.86,-99.62 698.37,-140.90"/>
    </edge>
    <edge id=":6_2" function="internal">
        <lane id=":6_2_0" index="0" speed="11.51" length="19.69" shape="699.06,-99.68 699.64,-110.86 701.88,-118.81 702.04,-119.00"/>
    </edge>
    <edge id=":6_3" function="internal">
        <lane id=":6_3_0" index="0" speed="3.65" length="2.34" shape="699.06,-99.68 699.84,-100.90 700.63,-101.31"/>
    </edge>
    <edge id=":6_22" function="internal">
        <lane id=":6_22_0" index="0" speed="11.51" length="11.64" shape="702.04,-119.00 705.78,-123.54 711.33,-125.04"/>
    </edge>
    <edge id=":6_23" function="internal">
        <lane id=":6_23_0" index="0" speed="3.65" length="2.34" shape="700.63,-101.31 701.44,-100.93 702.26,-99.75"/>
    </edge>
    <edge id=":6_4" function="internal">
        <lane id=":6_4_0" index="0" speed="6.41" length="9.02" shape="711.01,-105.34 708.54,-105.04 706.79,-104.03 705.76,-102.28 705.46,-99.81"/>
    </edge>
    <edge id=":6_5" function="internal">
        <lane id=":6_5_0" index="0" speed="17.00" length="21.00" shape="711.01,-105.34 690.16,-105.15"/>
        <lane id=":6_5_1" index="1" speed="17.00" length="21.00" shape="711.06,-108.54 690.12,-108.35"/>
        <lane id=":6_5_2" index="2" speed="17.00" length="21.00" shape="711.11,-111.74 690.07,-111.55"/>
        <lane id=":6_5_3" index="3" speed="17.00" length="21.00" shape="711.17,-114.94 690.02,-114.75"/>
    </edge>
    <edge id=":6_9" function="internal">
        <lane id=":6_9_0" index="0" speed="11.92" length="31.76" shape="711.17,-114.94 705.70,-116.68 701.75,-121.58 699.30,-129.66 698.37,-140.90"/>
    </edge>
    <edge id=":6_10" function="internal">
        <lane id=":6_10_0" index="0" speed="5.72" length="14.76" shape="711.17,-114.94 707.42,-117.53 706.20,-120.07 707.50,-122.58 711.33,-125.04"/>
    </edge>
    <edge id=":6_11" function="internal">
        <lane id=":6_11_0" index="0" speed="7.81" length="13.13" shape="701.56,-140.95 702.22,-138.25 704.09,-136.30 707.18,-135.10 711.49,-134.64"/>
    </edge>
    <edge id=":6_12" function="internal">
        <lane id=":6_12_0" index="0" speed="15.45" length="41.33" shape="701.56,-140.95 705.46,-99.81"/>
    </edge>
    <edge id=":6_13" function="internal">
        <lane id=":6_13_0" index="0" speed="11.69" length="20.01" shape="701.56,-140.95 700.98,-129.55 698.87,-121.38 698.78,-121.26"/>
    </edge>
    <edge id=":6_14" function="internal">
        <lane id=":6_14_0" index="0" speed="3.65" length="2.46" shape="701.56,-140.95 700.78,-139.74 699.99,-139.33 699.88,-139.38"/>
    </edge>
    <edge id=":6_24" function="internal">
        <lane id=":6_24_0" index="0" speed="11.69" length="11.45" shape="698.78,-121.26 695.21,-116.45 690.02,-114.75"/>
    </edge>
    <edge id=":6_25" function="internal">
        <lane id=":6_25_0" index="0" speed="3.65" length="2.21" shape="699.88,-139.38 699.18,-139.71 698.37,-140.90"/>
    </edge>
    <edge id=":6_15" function="internal">
        <lane id=":6_15_0" index="0" speed="7.26" length="11.63" shape="689.73,-135.28 693.54,-135.63 696.25,-136.69 697.86,-138.44 698.37,-140.90"/>
    </edge>
    <edge id=":6_16" function="internal">
        <lane id=":6_16_0" index="0" speed="17.00" length="21.63" shape="689.73,-135.28 711.49,-134.64"/>
        <lane id=":6_16_1" index="1" speed="17.00" length="21.63" shape="689.77,-132.08 711.44,-131.44"/>
        <lane id=":6_16_2" index="2" speed="17.00" length="21.63" shape="689.82,-128.88 711.39,-128.24"/>
        <lane id=":6_16_3" index="3" speed="17.00" length="21.63" shape="689.87,-125.68 711.33,-125.04"/>
    </edge>
    <edge id=":6_20" function="internal">
        <lane id=":6_20_0" index="0" speed="11.77" length="14.54" shape="689.87,-125.68 695.10,-124.06 698.91,-119.20 699.73,-116.43"/>
    </edge>
    <edge id=":6_21" function="internal">
        <lane id=":6_21_0" index="0" speed="5.92" length="13.10" shape="689.87,-125.68 694.00,-123.00 695.41,-120.29 694.08,-117.54 692.38,-116.37"/>
    </edge>
    <edge id=":6_26" function="internal">
        <lane id=":6_26_0" index="0" speed="11.77" length="16.95" shape="699.73,-116.43 701.30,-111.09 702.26,-99.75"/>
    </edge>
    <edge id=":6_27" function="internal">
        <lane id=":6_27_0" index="0" speed="5.92" length="2.86" shape="692.38,-116.37 690.02,-114.75"/>
    </edge>
    <edge id=":7_0" function="internal">
        <lane id=":7_0_0" index="0" speed="7.28" length="11.59" shape="292.75,1068.07 292.20,1064.31 291.01,1061.66 289.17,1060.14 286.70,1059.74"/>
    </edge>
    <edge id=":7_1" function="internal">
        <lane id=":7_1_0" index="0" speed="11.63" length="31.16" shape="295.95,1067.90 295.85,1055.71 297.04,1046.95 299.52,1041.59 303.29,1039.66"/>
    </edge>
    <edge id=":7_2" function="internal">
        <lane id=":7_2_0" index="0" speed="6.49" length="9.03" shape="304.44,1061.86 302.01,1062.32 300.32,1063.46 299.36,1065.26 299.14,1067.73"/>
    </edge>
    <edge id=":7_3" function="internal">
        <lane id=":7_3_0" index="0" speed="17.00" length="17.63" shape="304.27,1058.66 286.70,1059.74"/>
        <lane id=":7_3_1" index="1" speed="17.00" length="17.63" shape="304.11,1055.47 286.52,1056.55"/>
        <lane id=":7_3_2" index="2" speed="17.00" length="17.63" shape="303.94,1052.27 286.34,1053.35"/>
        <lane id=":7_3_3" index="3" speed="17.00" length="17.63" shape="303.78,1049.07 286.16,1050.16"/>
    </edge>
    <edge id=":7_7" function="internal">
        <lane id=":7_7_0" index="0" speed="17.00" length="18.12" shape="284.89,1027.73 290.22,1027.99 293.84,1028.92 297.46,1029.84 302.79,1030.07"/>
        <lane id=":7_7_1" index="1" speed="17.00" length="18.12" shape="285.07,1030.93 290.40,1031.18 294.01,1032.12 297.63,1033.04 302.95,1033.27"/>
        <lane id=":7_7_2" index="2" speed="17.00" length="18.12" shape="285.25,1034.12 290.58,1034.38 294.19,1035.31 297.80,1036.23 303.12,1036.46"/>
        <lane id=":7_7_3" index="3" speed="17.00" length="18.12" shape="285.43,1037.32 290.75,1037.57 294.36,1038.51 297.97,1039.43 303.29,1039.66"/>
    </edge>
    <edge id=":7_11" function="internal">
        <lane id=":7_11_0" index="0" speed="12.03" length="13.02" shape="285.61,1040.51 290.98,1042.01 295.02,1047.04 295.32,1047.99"/>
    </edge>
    <edge id=":7_12" function="internal">
        <lane id=":7_12_0" index="0" speed="5.61" length="11.20" shape="285.61,1040.51 289.36,1042.72 290.71,1045.06 289.64,1047.54 288.48,1048.41"/>
    </edge>
    <edge id=":7_13" function="internal">
        <lane id=":7_13_0" index="0" speed="12.03" length="20.19" shape="295.32,1047.99 297.74,1055.61 299.14,1067.73"/>
    </edge>
    <edge id=":7_14" function="internal">
        <lane id=":7_14_0" index="0" speed="5.61" length="2.91" shape="288.48,1048.41 286.16,1050.16"/>
    </edge>
    <edge id=":8_0" function="internal">
        <lane id=":8_0_0" index="0" speed="17.00" length="12.69" shape="-515.26,-105.16 -518.94,-105.72 -521.35,-106.82 -523.77,-107.89 -527.45,-108.38"/>
        <lane id=":8_0_1" index="1" speed="17.00" length="12.69" shape="-515.27,-108.36 -518.94,-108.92 -521.36,-110.02 -523.77,-111.09 -527.44,-111.58"/>
        <lane id=":8_0_2" index="2" speed="17.00" length="12.69" shape="-515.29,-111.56 -518.95,-112.12 -521.36,-113.22 -523.77,-114.29 -527.44,-114.78"/>
        <lane id=":8_0_3" index="3" speed="17.00" length="12.69" shape="-515.34,-114.76 -518.99,-115.32 -521.39,-116.42 -523.78,-117.49 -527.43,-117.98"/>
    </edge>
    <edge id=":8_4" function="internal">
        <lane id=":8_4_0" index="0" speed="5.54" length="11.28" shape="-515.31,-117.96 -518.83,-120.29 -520.01,-122.62 -518.85,-124.97 -517.33,-125.99"/>
    </edge>