<?xml version="1.0" encoding="UTF-8"?>

<!-- generated on 12/12/20 16:45:48 by Eclipse SUMO netedit Version 1.8.0
<configuration xmlns:xsi="http://www.w3.org/2001/XMLSchema-instance" xsi:noNamespaceSchemaLocation="http://sumo.dlr.de/xsd/netconvertConfiguration.xsd">

    <input>
        <sumo-net-file value="D:\MEGA\Greenline\Greenline_sumo\greenline_OD\greenline.net.xml"/>
    </input>

    <output>
        <output-file value="D:\MEGA\Greenline\Greenline_sumo\greenline_OD\greenline.net.xml"/>
    </output>

    <processing>
        <geometry.min-radius.fix.railways value="false"/>
        <geometry.max-grade.fix value="false"/>
        <offset.disable-normalization value="true"/>
        <lefthand value="false"/>
    </processing>

    <junctions>
        <no-turnarounds value="true"/>
        <junctions.corner-detail value="5"/>
        <junctions.limit-turn-speed value="5.5"/>
        <rectangular-lane-cut value="false"/>
    </junctions>

    <pedestrian>
        <walkingareas value="false"/>
    </pedestrian>

    <report>
        <aggregate-warnings value="5"/>
    </report>

</configuration>
-->

<net version="1.6" junctionCornerDetail="5" limitTurnSpeed="5.50" xmlns:xsi="http://www.w3.org/2001/XMLSchema-instance" xsi:noNamespaceSchemaLocation="http://sumo.dlr.de/xsd/net_file.xsd">

    <location netOffset="0.00,0.00" convBoundary="-806.21,-387.34,1766.85,1363.73" origBoundary="-10000000000.00,-10000000000.00,10000000000.00,10000000000.00" projParameter="!"/>

    <edge id=":gneJ102_0" function="internal">
        <lane id=":gneJ102_0_0" index="0" speed="7.31" length="11.70" shape="544.74,362.02 544.10,359.59 542.38,357.91 539.60,356.98 535.75,356.80"/>
    </edge>
    <edge id=":gneJ102_1" function="internal">
        <lane id=":gneJ102_1_0" index="0" speed="13.89" length="14.43" shape="544.74,362.02 544.19,347.60"/>
    </edge>
    <edge id=":gneJ102_2" function="internal">
        <lane id=":gneJ102_2_0" index="0" speed="8.67" length="7.75" shape="544.74,362.02 545.34,358.14 547.48,355.30 547.71,355.18"/>
    </edge>
    <edge id=":gneJ102_12" function="internal">
        <lane id=":gneJ102_12_0" index="0" speed="8.67" length="9.11" shape="547.71,355.18 551.16,353.51 556.39,352.76"/>
    </edge>
    <edge id=":gneJ102_3" function="internal">
        <lane id=":gneJ102_3_0" index="0" speed="7.32" length="11.72" shape="556.51,355.95 552.68,356.45 549.97,357.60 548.39,359.42 547.94,361.89"/>
    </edge>
    <edge id=":gneJ102_4" function="internal">
        <lane id=":gneJ102_4_0" index="0" speed="13.89" length="20.77" shape="556.51,355.95 535.75,356.80"/>
    </edge>
    <edge id=":gneJ102_5" function="internal">
        <lane id=":gneJ102_5_0" index="0" speed="8.67" length="16.86" shape="556.51,355.95 551.24,355.60 547.43,354.09 545.08,351.43 544.19,347.60"/>
    </edge>
    <edge id=":gneJ102_6" function="internal">
        <lane id=":gneJ102_6_0" index="0" speed="6.50" length="9.03" shape="550.59,347.37 551.02,349.81 552.14,351.52 553.93,352.50 556.39,352.76"/>
    </edge>
    <edge id=":gneJ102_7" function="internal">
        <lane id=":gneJ102_7_0" index="0" speed="13.89" length="14.84" shape="550.59,347.37 550.26,352.05 549.29,355.52 548.31,358.55 547.94,361.89"/>
    </edge>
    <edge id=":gneJ102_8" function="internal">
        <lane id=":gneJ102_8_0" index="0" speed="8.70" length="5.26" shape="547.39,347.49 546.78,351.37 545.98,352.43"/>
    </edge>
    <edge id=":gneJ102_13" function="internal">
        <lane id=":gneJ102_13_0" index="0" speed="8.70" length="11.59" shape="545.98,352.43 544.64,354.21 540.96,356.02 535.75,356.80"/>
    </edge>
    <edge id=":gneJ102_9" function="internal">
        <lane id=":gneJ102_9_0" index="0" speed="6.54" length="9.08" shape="535.61,353.60 538.04,353.14 539.75,352.01 540.73,350.20 540.99,347.72"/>
    </edge>
    <edge id=":gneJ102_10" function="internal">
        <lane id=":gneJ102_10_0" index="0" speed="13.89" length="20.79" shape="535.61,353.60 556.39,352.76"/>
    </edge>
    <edge id=":gneJ102_11" function="internal">
        <lane id=":gneJ102_11_0" index="0" speed="8.66" length="16.83" shape="535.61,353.60 540.87,353.92 544.68,355.41 547.04,358.07 547.94,361.89"/>
    </edge>
    <edge id=":gneJ103_0" function="internal">
        <lane id=":gneJ103_0_0" index="0" speed="13.89" length="10.10" shape="537.82,260.09 537.42,257.22 536.53,255.40 535.18,253.72 533.40,251.28"/>
    </edge>
    <edge id=":gneJ103_1" function="internal">
        <lane id=":gneJ103_1_0" index="0" speed="13.89" length="10.55" shape="537.82,260.09 537.02,249.62"/>
        <lane id=":gneJ103_1_1" index="1" speed="13.89" length="10.55" shape="541.02,259.98 540.21,249.41"/>
    </edge>
    <edge id=":gneJ103_3" function="internal">
        <lane id=":gneJ103_3_0" index="0" speed="13.89" length="10.70" shape="550.36,249.64 549.03,252.41 548.06,254.44 547.51,256.59 547.41,259.75"/>
    </edge>
    <edge id=":gneJ103_4" function="internal">
        <lane id=":gneJ103_4_0" index="0" speed="8.61" length="24.15" shape="550.36,249.64 546.54,256.05 542.43,258.45 538.06,256.87 533.40,251.28"/>
    </edge>
    <edge id=":gneJ103_5" function="internal">
        <lane id=":gneJ103_5_0" index="0" speed="6.01" length="13.85" shape="550.36,249.64 547.87,252.57 544.58,253.57 541.64,252.54 540.21,249.41"/>
    </edge>
    <edge id=":gneJ103_6" function="internal">
        <lane id=":gneJ103_6_0" index="0" speed="13.89" length="10.75" shape="546.60,248.98 547.41,259.75"/>
        <lane id=":gneJ103_6_1" index="1" speed="13.89" length="10.75" shape="543.41,249.19 544.22,259.86"/>
    </edge>
    <edge id=":gneJ103_8" function="internal">
        <lane id=":gneJ103_8_0" index="0" speed="6.04" length="3.94" shape="543.41,249.19 542.43,252.58 542.08,252.79"/>
    </edge>
    <edge id=":gneJ103_9" function="internal">
        <lane id=":gneJ103_9_0" index="0" speed="6.04" length="9.99" shape="542.08,252.79 539.68,254.16 536.30,253.78 533.40,251.28"/>
    </edge>
    <edge id=":gneJ104_0" function="internal">
        <lane id=":gneJ104_0_0" index="0" speed="8.02" length="14.06" shape="565.52,900.63 564.96,895.69 563.76,892.18 561.90,890.10 559.40,889.45"/>
    </edge>
    <edge id=":gneJ104_1" function="internal">
        <lane id=":gneJ104_1_0" index="0" speed="13.89" length="20.25" shape="565.52,900.63 564.73,880.39"/>
    </edge>
    <edge id=":gneJ104_2" function="internal">
        <lane id=":gneJ104_2_0" index="0" speed="8.03" length="6.03" shape="565.52,900.63 565.91,896.71 566.90,894.87"/>
    </edge>
    <edge id=":gneJ104_12" function="internal">
        <lane id=":gneJ104_12_0" index="0" speed="8.03" length="8.27" shape="566.90,894.87 567.45,893.85 570.13,892.07 573.95,891.36"/>
    </edge>
    <edge id=":gneJ104_3" function="internal">
        <lane id=":gneJ104_3_0" index="0" speed="6.52" length="9.04" shape="574.08,894.65 571.65,895.11 569.95,896.24 568.97,898.03 568.72,900.50"/>
    </edge>
    <edge id=":gneJ104_4" function="internal">
        <lane id=":gneJ104_4_0" index="0" speed="13.89" length="15.72" shape="574.08,894.65 570.39,893.92 566.74,892.09 563.10,890.25 559.40,889.45"/>
    </edge>
    <edge id=":gneJ104_5" function="internal">
        <lane id=":gneJ104_5_0" index="0" speed="8.94" length="18.11" shape="574.08,894.65 570.79,893.31 567.83,889.73 565.66,885.04 564.73,880.39"/>
    </edge>
    <edge id=":gneJ104_6" function="internal">
        <lane id=":gneJ104_6_0" index="0" speed="7.93" length="13.95" shape="567.93,880.27 568.46,885.21 569.64,888.70 571.47,890.75 573.95,891.36"/>
    </edge>
    <edge id=":gneJ104_7" function="internal">
        <lane id=":gneJ104_7_0" index="0" speed="13.89" length="20.24" shape="567.93,880.27 568.72,900.50"/>
    </edge>
    <edge id=":gneJ104_8" function="internal">
        <lane id=":gneJ104_8_0" index="0" speed="8.00" length="5.98" shape="567.93,880.27 567.52,884.21 566.55,885.98"/>
    </edge>
    <edge id=":gneJ104_13" function="internal">
        <lane id=":gneJ104_13_0" index="0" speed="8.00" length="8.36" shape="566.55,885.98 565.96,887.05 563.25,888.80 559.40,889.45"/>
    </edge>
    <edge id=":gneJ104_9" function="internal">
        <lane id=":gneJ104_9_0" index="0" speed="6.50" length="9.04" shape="559.32,886.18 561.76,885.75 563.48,884.64 564.47,882.85 564.73,880.39"/>
    </edge>
    <edge id=":gneJ104_10" function="internal">
        <lane id=":gneJ104_10_0" index="0" speed="13.89" length="15.66" shape="559.32,886.18 563.01,886.95 566.64,888.78 570.26,890.61 573.95,891.36"/>
    </edge>
    <edge id=":gneJ104_11" function="internal">
        <lane id=":gneJ104_11_0" index="0" speed="9.01" length="18.16" shape="559.32,886.18 562.61,887.55 565.58,891.14 567.77,895.83 568.72,900.50"/>
    </edge>
    <edge id=":gneJ105_0" function="internal">
        <lane id=":gneJ105_0_0" index="0" speed="6.50" length="9.04" shape="560.89,777.10 560.45,774.66 559.33,772.96 557.54,771.98 555.08,771.73"/>
    </edge>
    <edge id=":gneJ105_1" function="internal">
        <lane id=":gneJ105_1_0" index="0" speed="13.89" length="20.82" shape="560.89,777.10 560.14,756.29"/>
    </edge>
    <edge id=":gneJ105_2" function="internal">
        <lane id=":gneJ105_2_0" index="0" speed="8.67" length="16.88" shape="560.89,777.10 561.24,771.83 562.76,768.01 565.43,765.67 569.26,764.78"/>
    </edge>
    <edge id=":gneJ105_3" function="internal">
        <lane id=":gneJ105_3_0" index="0" speed="6.49" length="9.03" shape="569.48,771.21 567.04,771.63 565.33,772.74 564.34,774.52 564.09,776.98"/>
    </edge>
    <edge id=":gneJ105_4" function="internal">
        <lane id=":gneJ105_4_0" index="0" speed="13.89" length="14.42" shape="569.48,771.21 555.08,771.73"/>
        <lane id=":gneJ105_4_1" index="1" speed="13.89" length="14.42" shape="569.37,768.01 554.94,768.53"/>
    </edge>
    <edge id=":gneJ105_6" function="internal">
        <lane id=":gneJ105_6_0" index="0" speed="8.69" length="5.27" shape="569.37,768.01 565.49,767.38 564.43,766.57"/>
    </edge>
    <edge id=":gneJ105_14" function="internal">
        <lane id=":gneJ105_14_0" index="0" speed="8.69" length="11.61" shape="564.43,766.57 562.65,765.21 560.87,761.52 560.14,756.29"/>
    </edge>
    <edge id=":gneJ105_7" function="internal">
        <lane id=":gneJ105_7_0" index="0" speed="6.51" length="9.05" shape="563.33,756.18 563.77,758.62 564.89,760.33 566.68,761.32 569.15,761.58"/>
    </edge>
    <edge id=":gneJ105_8" function="internal">
        <lane id=":gneJ105_8_0" index="0" speed="13.89" length="20.82" shape="563.33,756.18 564.09,776.98"/>
    </edge>
    <edge id=":gneJ105_9" function="internal">
        <lane id=":gneJ105_9_0" index="0" speed="8.70" length="16.89" shape="563.33,756.18 562.97,761.45 561.45,765.26 558.77,767.62 554.94,768.53"/>
    </edge>
    <edge id=":gneJ105_10" function="internal">
        <lane id=":gneJ105_10_0" index="0" speed="6.55" length="9.11" shape="554.67,762.14 557.14,761.68 558.87,760.56 559.87,758.76 560.14,756.29"/>
    </edge>
    <edge id=":gneJ105_11" function="internal">
        <lane id=":gneJ105_11_0" index="0" speed="13.89" length="14.47" shape="554.67,762.14 569.15,761.58"/>
        <lane id=":gneJ105_11_1" index="1" speed="13.89" length="14.47" shape="554.81,765.33 569.26,764.78"/>
    </edge>
    <edge id=":gneJ105_13" function="internal">
        <lane id=":gneJ105_13_0" index="0" speed="8.66" length="5.32" shape="554.81,765.33 558.70,765.92 559.80,766.75"/>
    </edge>
    <edge id=":gneJ105_15" function="internal">
        <lane id=":gneJ105_15_0" index="0" speed="8.66" length="11.57" shape="559.80,766.75 561.54,768.06 563.34,771.75 564.09,776.98"/>
    </edge>
    <edge id=":gneJ106_0" function="internal">
        <lane id=":gneJ106_0_0" index="0" speed="6.52" length="9.05" shape="555.57,626.16 555.14,623.73 554.02,622.02 552.23,621.02 549.76,620.76"/>
    </edge>
    <edge id=":gneJ106_1" function="internal">
        <lane id=":gneJ106_1_0" index="0" speed="13.89" length="14.41" shape="555.57,626.16 555.04,611.77"/>
    </edge>
    <edge id=":gneJ106_2" function="internal">
        <lane id=":gneJ106_2_0" index="0" speed="8.01" length="5.91" shape="555.57,626.16 555.99,622.30 556.97,620.53"/>
    </edge>
    <edge id=":gneJ106_12" function="internal">
        <lane id=":gneJ106_12_0" index="0" speed="8.01" length="8.28" shape="556.97,620.53 557.54,619.49 560.23,617.74 564.05,617.04"/>
    </edge>
    <edge id=":gneJ106_3" function="internal">
        <lane id=":gneJ106_3_0" index="0" speed="6.52" length="9.05" shape="564.18,620.24 561.74,620.68 560.02,621.80 559.04,623.59 558.77,626.05"/>
    </edge>
    <edge id=":gneJ106_4" function="internal">
        <lane id=":gneJ106_4_0" index="0" speed="13.89" length="14.43" shape="564.18,620.24 549.76,620.76"/>
    </edge>
    <edge id=":gneJ106_5" function="internal">
        <lane id=":gneJ106_5_0" index="0" speed="8.00" length="14.21" shape="564.18,620.24 560.31,619.84 557.50,618.29 555.74,615.60 555.04,611.77"/>
    </edge>
    <edge id=":gneJ106_6" function="internal">
        <lane id=":gneJ106_6_0" index="0" speed="6.51" length="9.05" shape="558.24,611.65 558.69,614.09 559.80,615.80 561.59,616.79 564.05,617.04"/>
    </edge>
    <edge id=":gneJ106_7" function="internal">
        <lane id=":gneJ106_7_0" index="0" speed="13.89" length="14.42" shape="558.24,611.65 558.77,626.05"/>
    </edge>
    <edge id=":gneJ106_8" function="internal">
        <lane id=":gneJ106_8_0" index="0" speed="7.99" length="5.95" shape="558.24,611.65 557.84,615.52 556.85,617.32"/>
    </edge>
    <edge id=":gneJ106_13" function="internal">
        <lane id=":gneJ106_13_0" index="0" speed="7.99" length="8.26" shape="556.85,617.32 556.29,618.33 553.60,620.08 549.76,620.76"/>
    </edge>
    <edge id=":gneJ106_9" function="internal">
        <lane id=":gneJ106_9_0" index="0" speed="6.49" length="9.03" shape="549.65,617.56 552.09,617.13 553.80,616.02 554.79,614.23 555.04,611.77"/>
    </edge>
    <edge id=":gneJ106_10" function="internal">
        <lane id=":gneJ106_10_0" index="0" speed="13.89" length="14.41" shape="549.65,617.56 564.05,617.04"/>
    </edge>
    <edge id=":gneJ106_11" function="internal">
        <lane id=":gneJ106_11_0" index="0" speed="8.01" length="14.20" shape="549.65,617.56 553.53,617.98 556.34,619.54 558.09,622.23 558.77,626.05"/>
    </edge>
    <edge id=":gneJ107_0" function="internal">
        <lane id=":gneJ107_0_0" index="0" speed="6.51" length="9.03" shape="551.00,506.97 550.55,504.53 549.44,502.83 547.65,501.85 545.19,501.59"/>
    </edge>
    <edge id=":gneJ107_1" function="internal">
        <lane id=":gneJ107_1_0" index="0" speed="13.89" length="11.23" shape="551.00,506.97 550.50,495.75"/>
    </edge>
    <edge id=":gneJ107_2" function="internal">
        <lane id=":gneJ107_2_0" index="0" speed="6.52" length="9.05" shape="559.58,501.00 557.14,501.46 555.43,502.58 554.45,504.38 554.20,506.85"/>
    </edge>
    <edge id=":gneJ107_3" function="internal">
        <lane id=":gneJ107_3_0" index="0" speed="13.89" length="14.41" shape="559.58,501.00 545.19,501.59"/>
    </edge>
    <edge id=":gneJ107_4" function="internal">
        <lane id=":gneJ107_4_0" index="0" speed="7.37" length="11.77" shape="559.58,501.00 555.72,500.81 552.92,499.88 551.18,498.19 550.50,495.75"/>
    </edge>
    <edge id=":gneJ107_5" function="internal">
        <lane id=":gneJ107_5_0" index="0" speed="13.89" length="11.28" shape="553.69,495.57 554.20,506.85"/>
    </edge>
    <edge id=":gneJ107_6" function="internal">
        <lane id=":gneJ107_6_0" index="0" speed="7.29" length="4.12" shape="553.69,495.57 553.28,498.08 552.26,499.29"/>
    </edge>
    <edge id=":gneJ107_7" function="internal">
        <lane id=":gneJ107_7_0" index="0" speed="7.29" length="7.64" shape="552.26,499.29 551.72,499.91 549.03,501.09 545.19,501.59"/>
    </edge>
    <edge id=":gneJ108_0" function="internal">
        <lane id=":gneJ108_0_0" index="0" speed="13.89" length="11.27" shape="549.55,478.92 549.03,467.66"/>
    </edge>
    <edge id=":gneJ108_1" function="internal">
        <lane id=":gneJ108_1_0" index="0" speed="7.30" length="4.11" shape="549.55,478.92 549.96,476.42 550.98,475.22"/>
    </edge>
    <edge id=":gneJ108_7" function="internal">
        <lane id=":gneJ108_7_0" index="0" speed="7.30" length="7.65" shape="550.98,475.22 551.52,474.58 554.21,473.40 558.05,472.89"/>
    </edge>
    <edge id=":gneJ108_2" function="internal">
        <lane id=":gneJ108_2_0" index="0" speed="6.50" length="9.03" shape="552.23,467.53 552.68,469.96 553.80,471.67 555.59,472.64 558.05,472.89"/>
    </edge>
    <edge id=":gneJ108_3" function="internal">
        <lane id=":gneJ108_3_0" index="0" speed="13.89" length="11.22" shape="552.23,467.53 552.74,478.74"/>
    </edge>
    <edge id=":gneJ108_4" function="internal">
        <lane id=":gneJ108_4_0" index="0" speed="6.52" length="9.05" shape="543.66,473.51 546.09,473.05 547.80,471.92 548.78,470.12 549.03,467.66"/>
    </edge>
    <edge id=":gneJ108_5" function="internal">
        <lane id=":gneJ108_5_0" index="0" speed="13.89" length="14.41" shape="543.66,473.51 558.05,472.89"/>
    </edge>
    <edge id=":gneJ108_6" function="internal">
        <lane id=":gneJ108_6_0" index="0" speed="7.37" length="11.77" shape="543.66,473.51 547.51,473.69 550.31,474.62 552.06,476.31 552.74,478.74"/>
    </edge>
    <edge id=":gneJ109_0" function="internal">
        <lane id=":gneJ109_0_0" index="0" speed="6.50" length="9.03" shape="404.25,368.11 403.80,365.67 402.68,363.97 400.88,363.00 398.42,362.76"/>
    </edge>
    <edge id=":gneJ109_1" function="internal">
        <lane id=":gneJ109_1_0" index="0" speed="13.89" length="14.42" shape="404.25,368.11 403.66,353.70"/>
    </edge>
    <edge id=":gneJ109_2" function="internal">
        <lane id=":gneJ109_2_0" index="0" speed="8.01" length="14.21" shape="404.25,368.11 404.64,364.24 406.18,361.41 408.86,359.65 412.68,358.93"/>
    </edge>
    <edge id=":gneJ109_3" function="internal">
        <lane id=":gneJ109_3_0" index="0" speed="6.52" length="9.05" shape="412.82,362.13 410.38,362.58 408.68,363.71 407.70,365.51 407.45,367.97"/>
    </edge>
    <edge id=":gneJ109_4" function="internal">
        <lane id=":gneJ109_4_0" index="0" speed="13.89" length="14.41" shape="412.82,362.13 398.42,362.76"/>
    </edge>
    <edge id=":gneJ109_5" function="internal">
        <lane id=":gneJ109_5_0" index="0" speed="8.00" length="5.92" shape="412.82,362.13 408.95,361.74 407.16,360.77"/>
    </edge>
    <edge id=":gneJ109_12" function="internal">
        <lane id=":gneJ109_12_0" index="0" speed="8.00" length="8.28" shape="407.16,360.77 406.13,360.21 404.37,357.53 403.66,353.70"/>
    </edge>
    <edge id=":gneJ109_6" function="internal">
        <lane id=":gneJ109_6_0" index="0" speed="6.50" length="9.03" shape="406.85,353.57 407.30,356.01 408.42,357.71 410.22,358.69 412.68,358.93"/>
    </edge>
    <edge id=":gneJ109_7" function="internal">
        <lane id=":gneJ109_7_0" index="0" speed="13.89" length="14.41" shape="406.85,353.57 407.45,367.97"/>
    </edge>
    <edge id=":gneJ109_8" function="internal">
        <lane id=":gneJ109_8_0" index="0" speed="8.02" length="14.21" shape="406.85,353.57 406.46,357.44 404.93,360.27 402.25,362.04 398.42,362.76"/>
    </edge>
    <edge id=":gneJ109_9" function="internal">
        <lane id=":gneJ109_9_0" index="0" speed="6.53" length="9.06" shape="398.28,359.56 400.72,359.10 402.43,357.97 403.41,356.17 403.66,353.70"/>
    </edge>
    <edge id=":gneJ109_10" function="internal">
        <lane id=":gneJ109_10_0" index="0" speed="13.89" length="14.42" shape="398.28,359.56 412.68,358.93"/>
    </edge>
    <edge id=":gneJ109_11" function="internal">
        <lane id=":gneJ109_11_0" index="0" speed="8.00" length="5.94" shape="398.28,359.56 402.15,359.94 403.95,360.91"/>
    </edge>
    <edge id=":gneJ109_13" function="internal">
        <lane id=":gneJ109_13_0" index="0" speed="8.00" length="8.27" shape="403.95,360.91 404.97,361.47 406.74,364.15 407.45,367.97"/>
    </edge>
    <edge id=":gneJ110_0" function="internal">
        <lane id=":gneJ110_0_0" index="0" speed="6.71" length="9.35" shape="96.36,381.04 95.88,378.55 94.71,376.78 92.85,375.73 90.31,375.39"/>
    </edge>
    <edge id=":gneJ110_1" function="internal">
        <lane id=":gneJ110_1_0" index="0" speed="13.89" length="14.57" shape="96.36,381.04 95.70,366.48"/>
    </edge>
    <edge id=":gneJ110_2" function="internal">
        <lane id=":gneJ110_2_0" index="0" speed="7.99" length="14.23" shape="96.36,381.04 96.72,377.15 98.25,374.33 100.93,372.56 104.77,371.86"/>
    </edge>
    <edge id=":gneJ110_3" function="internal">
        <lane id=":gneJ110_3_0" index="0" speed="6.49" length="9.03" shape="104.90,375.06 102.46,375.51 100.75,376.62 99.79,378.42 99.55,380.89"/>
    </edge>
    <edge id=":gneJ110_4" function="internal">
        <lane id=":gneJ110_4_0" index="0" speed="13.89" length="14.59" shape="104.90,375.06 90.31,375.39"/>
    </edge>
    <edge id=":gneJ110_5" function="internal">
        <lane id=":gneJ110_5_0" index="0" speed="8.05" length="6.12" shape="104.90,375.06 101.01,374.65 99.07,373.58"/>
    </edge>
    <edge id=":gneJ110_12" function="internal">
        <lane id=":gneJ110_12_0" index="0" speed="8.05" length="8.21" shape="99.07,373.58 98.19,373.09 96.42,370.36 95.70,366.48"/>
    </edge>
    <edge id=":gneJ110_6" function="internal">
        <lane id=":gneJ110_6_0" index="0" speed="6.57" length="9.19" shape="98.90,366.34 99.35,368.84 100.49,370.59 102.29,371.60 104.77,371.86"/>
    </edge>
    <edge id=":gneJ110_7" function="internal">
        <lane id=":gneJ110_7_0" index="0" speed="13.89" length="14.56" shape="98.90,366.34 99.55,380.89"/>
    </edge>
    <edge id=":gneJ110_8" function="internal">
        <lane id=":gneJ110_8_0" index="0" speed="7.94" length="14.35" shape="98.90,366.34 98.50,370.28 96.94,373.10 94.21,374.80 90.31,375.39"/>
    </edge>
    <edge id=":gneJ110_9" function="internal">
        <lane id=":gneJ110_9_0" index="0" speed="6.42" length="9.03" shape="90.28,372.15 92.74,371.79 94.47,370.73 95.45,368.96 95.70,366.48"/>
    </edge>
    <edge id=":gneJ110_10" function="internal">
        <lane id=":gneJ110_10_0" index="0" speed="13.89" length="14.49" shape="90.28,372.15 104.77,371.86"/>
    </edge>
    <edge id=":gneJ110_11" function="internal">
        <lane id=":gneJ110_11_0" index="0" speed="8.19" length="5.89" shape="90.28,372.15 94.18,372.69 95.87,373.67"/>
    </edge>
    <edge id=":gneJ110_13" function="internal">
        <lane id=":gneJ110_13_0" index="0" speed="8.19" length="8.49" shape="95.87,373.67 97.03,374.33 98.82,377.06 99.55,380.89"/>
    </edge>
    <edge id=":gneJ111_0" function="internal">
        <lane id=":gneJ111_0_0" index="0" speed="6.03" length="9.07" shape="-95.58,332.12 -98.13,331.66 -100.00,332.19 -101.22,333.72 -101.77,336.24"/>
    </edge>
    <edge id=":gneJ111_1" function="internal">
        <lane id=":gneJ111_1_0" index="0" speed="13.89" length="15.83" shape="-95.58,332.12 -110.54,326.93"/>
    </edge>
    <edge id=":gneJ111_2" function="internal">
        <lane id=":gneJ111_2_0" index="0" speed="8.71" length="6.63" shape="-95.58,332.12 -99.43,330.24 -101.04,328.53"/>
    </edge>
    <edge id=":gneJ111_12" function="internal">
        <lane id=":gneJ111_12_0" index="0" speed="8.71" length="8.88" shape="-101.04,328.53 -101.91,327.62 -103.02,324.27 -102.76,320.18"/>
    </edge>
    <edge id=":gneJ111_3" function="internal">
        <lane id=":gneJ111_3_0" index="0" speed="7.35" length="10.77" shape="-99.62,320.85 -99.79,323.65 -99.01,325.96 -97.26,327.77 -94.57,329.09"/>
    </edge>
    <edge id=":gneJ111_4" function="internal">
        <lane id=":gneJ111_4_0" index="0" speed="13.89" length="15.56" shape="-99.62,320.85 -100.34,324.61 -100.95,328.51 -101.43,332.42 -101.77,336.24"/>
    </edge>
    <edge id=":gneJ111_5" function="internal">
        <lane id=":gneJ111_5_0" index="0" speed="7.78" length="14.75" shape="-99.62,320.85 -101.04,324.71 -103.34,327.02 -106.50,327.75 -110.54,326.93"/>
    </edge>
    <edge id=":gneJ111_6" function="internal">
        <lane id=":gneJ111_6_0" index="0" speed="6.23" length="9.05" shape="-109.46,323.92 -106.98,324.42 -105.04,323.97 -103.63,322.56 -102.76,320.18"/>
    </edge>
    <edge id=":gneJ111_7" function="internal">
        <lane id=":gneJ111_7_0" index="0" speed="13.89" length="15.76" shape="-109.46,323.92 -94.57,329.09"/>
    </edge>
    <edge id=":gneJ111_8" function="internal">
        <lane id=":gneJ111_8_0" index="0" speed="9.38" length="6.19" shape="-109.46,323.92 -105.84,325.81 -104.41,327.36"/>
    </edge>
    <edge id=":gneJ111_13" function="internal">
        <lane id=":gneJ111_13_0" index="0" speed="9.38" length="9.55" shape="-104.41,327.36 -103.35,328.50 -102.00,331.98 -101.77,336.24"/>
    </edge>
    <edge id=":gneJ111_9" function="internal">
        <lane id=":gneJ111_9_0" index="0" speed="8.09" length="11.54" shape="-105.00,336.01 -105.15,332.86 -106.12,330.29 -107.92,328.31 -110.54,326.93"/>
    </edge>
    <edge id=":gneJ111_10" function="internal">
        <lane id=":gneJ111_10_0" index="0" speed="13.89" length="15.99" shape="-105.00,336.01 -104.63,332.12 -104.12,328.06 -103.49,324.02 -102.76,320.18"/>
    </edge>
    <edge id=":gneJ111_11" function="internal">
        <lane id=":gneJ111_11_0" index="0" speed="7.64" length="15.26" shape="-105.00,336.01 -104.06,331.77 -102.00,329.20 -98.84,328.31 -94.57,329.09"/>
    </edge>
    <edge id=":gneJ114_0" function="internal">
        <lane id=":gneJ114_0_0" index="0" speed="6.05" length="9.07" shape="428.85,900.91 428.39,898.38 427.22,896.80 425.37,896.19 422.81,896.55"/>
    </edge>
    <edge id=":gneJ114_1" function="internal">
        <lane id=":gneJ114_1_0" index="0" speed="13.89" length="15.31" shape="428.85,900.91 428.30,885.61"/>
    </edge>
    <edge id=":gneJ114_2" function="internal">
        <lane id=":gneJ114_2_0" index="0" speed="8.20" length="14.93" shape="428.85,900.91 429.24,896.66 430.77,893.57 433.46,891.65 437.29,890.89"/>
    </edge>
    <edge id=":gneJ114_3" function="internal">
        <lane id=":gneJ114_3_0" index="0" speed="6.75" length="9.78" shape="437.41,894.09 434.97,894.59 433.27,895.87 432.29,897.94 432.05,900.79"/>
    </edge>
    <edge id=":gneJ114_4" function="internal">
        <lane id=":gneJ114_4_0" index="0" speed="13.89" length="14.84" shape="437.41,894.09 433.70,894.36 430.04,894.87 426.42,895.61 422.81,896.55"/>
    </edge>
    <edge id=":gneJ114_5" function="internal">
        <lane id=":gneJ114_5_0" index="0" speed="7.99" length="5.40" shape="437.41,894.09 433.54,893.69 432.22,892.96"/>
    </edge>
    <edge id=":gneJ114_12" function="internal">
        <lane id=":gneJ114_12_0" index="0" speed="7.99" length="8.81" shape="432.22,892.96 430.73,892.14 428.98,889.45 428.30,885.61"/>
    </edge>
    <edge id=":gneJ114_6" function="internal">
        <lane id=":gneJ114_6_0" index="0" speed="6.50" length="9.03" shape="431.50,885.50 431.93,887.94 433.04,889.65 434.83,890.64 437.29,890.89"/>
    </edge>
    <edge id=":gneJ114_7" function="internal">
        <lane id=":gneJ114_7_0" index="0" speed="13.89" length="15.30" shape="431.50,885.50 432.05,900.79"/>
    </edge>
    <edge id=":gneJ114_8" function="internal">
        <lane id=":gneJ114_8_0" index="0" speed="9.14" length="15.29" shape="431.50,885.50 431.06,889.37 429.47,892.49 426.72,894.89 422.81,896.55"/>
    </edge>
    <edge id=":gneJ114_9" function="internal">
        <lane id=":gneJ114_9_0" index="0" speed="7.81" length="10.99" shape="421.91,893.42 424.78,892.24 426.80,890.54 427.97,888.33 428.30,885.61"/>
    </edge>
    <edge id=":gneJ114_10" function="internal">
        <lane id=":gneJ114_10_0" index="0" speed="13.89" length="15.62" shape="421.91,893.42 425.64,892.48 429.53,891.72 433.46,891.18 437.29,890.89"/>
    </edge>
    <edge id=":gneJ114_11" function="internal">
        <lane id=":gneJ114_11_0" index="0" speed="7.66" length="6.62" shape="421.91,893.42 426.20,892.85 428.37,893.58"/>
    </edge>
    <edge id=":gneJ114_13" function="internal">
        <lane id=":gneJ114_13_0" index="0" speed="7.66" length="8.61" shape="428.37,893.58 429.32,893.89 431.27,896.54 432.05,900.79"/>
    </edge>
    <edge id=":gneJ115_0" function="internal">
        <lane id=":gneJ115_0_0" index="0" speed="6.50" length="9.03" shape="424.29,782.83 423.84,780.40 422.72,778.70 420.92,777.73 418.46,777.48"/>
    </edge>
    <edge id=":gneJ115_1" function="internal">
        <lane id=":gneJ115_1_0" index="0" speed="13.89" length="20.85" shape="424.29,782.83 423.51,762.00"/>
    </edge>
    <edge id=":gneJ115_2" function="internal">
        <lane id=":gneJ115_2_0" index="0" speed="8.68" length="16.90" shape="424.29,782.83 424.62,777.56 426.12,773.74 428.80,771.38 432.64,770.47"/>
    </edge>
    <edge id=":gneJ115_3" function="internal">
        <lane id=":gneJ115_3_0" index="0" speed="6.52" length="9.08" shape="432.91,776.86 430.45,777.31 428.73,778.44 427.74,780.23 427.49,782.70"/>
    </edge>
    <edge id=":gneJ115_4" function="internal">
        <lane id=":gneJ115_4_0" index="0" speed="13.89" length="14.47" shape="432.91,776.86 418.46,777.48"/>
        <lane id=":gneJ115_4_1" index="1" speed="13.89" length="14.47" shape="432.77,773.66 418.32,774.29"/>
    </edge>
    <edge id=":gneJ115_6" function="internal">
        <lane id=":gneJ115_6_0" index="0" speed="8.66" length="5.28" shape="432.77,773.66 428.87,773.07 427.81,772.28"/>
    </edge>
    <edge id=":gneJ115_14" function="internal">
        <lane id=":gneJ115_14_0" index="0" speed="8.66" length="11.63" shape="427.81,772.28 426.02,770.93 424.24,767.24 423.51,762.00"/>
    </edge>
    <edge id=":gneJ115_7" function="internal">
        <lane id=":gneJ115_7_0" index="0" speed="6.49" length="9.03" shape="426.71,761.89 427.14,764.33 428.25,766.04 430.04,767.02 432.50,767.27"/>
    </edge>
    <edge id=":gneJ115_8" function="internal">