<?xml version="1.0" encoding="UTF-8"?>

<!-- generated on 12/06/20 17:38:26 by Eclipse SUMO netedit Version 1.8.0
<configuration xmlns:xsi="http://www.w3.org/2001/XMLSchema-instance" xsi:noNamespaceSchemaLocation="http://sumo.dlr.de/xsd/netconvertConfiguration.xsd">

    <input>
        <sumo-net-file value="D:\MEGA\Greenline\Greenline_sumo\greenline_OD\greenline.net.xml"/>
    </input>

    <output>
        <output-file value="D:\MEGA\Greenline\Greenline_sumo\greenline_OD\greenline.net.xml"/>
    </output>

    <processing>
        <geometry.min-radius.fix.railways value="false"/>
        <geometry.max-grade.fix value="false"/>
        <offset.disable-normalization value="true"/>
        <lefthand value="false"/>
    </processing>

    <junctions>
        <no-turnarounds value="true"/>
        <junctions.corner-detail value="5"/>
        <junctions.limit-turn-speed value="5.5"/>
        <rectangular-lane-cut value="false"/>
    </junctions>

    <pedestrian>
        <walkingareas value="false"/>
    </pedestrian>

    <report>
        <aggregate-warnings value="5"/>
    </report>

</configuration>
-->

<net version="1.6" junctionCornerDetail="5" limitTurnSpeed="5.50" xmlns:xsi="http://www.w3.org/2001/XMLSchema-instance" xsi:noNamespaceSchemaLocation="http://sumo.dlr.de/xsd/net_file.xsd">

    <location netOffset="0.00,0.00" convBoundary="-806.21,-387.34,1766.85,1363.73" origBoundary="-10000000000.00,-10000000000.00,10000000000.00,10000000000.00" projParameter="!"/>

    <edge id=":gneJ100_0" function="internal">
        <lane id=":gneJ100_0_0" index="0" speed="6.59" length="9.13" shape="578.14,1001.33 578.57,1003.81 579.67,1005.58 581.45,1006.63 583.89,1006.96"/>
    </edge>
    <edge id=":gneJ100_1" function="internal">
        <lane id=":gneJ100_1_0" index="0" speed="6.47" length="9.03" shape="569.50,1007.15 571.95,1006.76 573.67,1005.67 574.67,1003.90 574.94,1001.43"/>
    </edge>
    <edge id=":gneJ100_2" function="internal">
        <lane id=":gneJ100_2_0" index="0" speed="13.89" length="14.39" shape="569.50,1007.15 583.89,1006.96"/>
    </edge>
    <edge id=":gneJ102_0" function="internal">
        <lane id=":gneJ102_0_0" index="0" speed="6.65" length="9.26" shape="547.96,361.41 547.45,358.94 546.27,357.20 544.43,356.19 541.91,355.91"/>
    </edge>
    <edge id=":gneJ102_1" function="internal">
        <lane id=":gneJ102_1_0" index="0" speed="13.89" length="14.52" shape="547.96,361.41 547.15,346.91"/>
    </edge>
    <edge id=":gneJ102_2" function="internal">
        <lane id=":gneJ102_2_0" index="0" speed="7.98" length="6.00" shape="547.96,361.41 548.28,357.51 549.24,355.66"/>
    </edge>
    <edge id=":gneJ102_12" function="internal">
        <lane id=":gneJ102_12_0" index="0" speed="7.98" length="8.24" shape="549.24,355.66 549.76,354.67 552.43,352.87 556.27,352.13"/>
    </edge>
    <edge id=":gneJ102_3" function="internal">
        <lane id=":gneJ102_3_0" index="0" speed="6.48" length="9.03" shape="556.42,355.33 553.99,355.80 552.30,356.93 551.35,358.74 551.16,361.21"/>
    </edge>
    <edge id=":gneJ102_4" function="internal">
        <lane id=":gneJ102_4_0" index="0" speed="13.89" length="14.52" shape="556.42,355.33 541.91,355.91"/>
    </edge>
    <edge id=":gneJ102_5" function="internal">
        <lane id=":gneJ102_5_0" index="0" speed="8.03" length="14.27" shape="556.42,355.33 552.53,354.96 549.69,353.44 547.90,350.75 547.15,346.91"/>
    </edge>
    <edge id=":gneJ102_6" function="internal">
        <lane id=":gneJ102_6_0" index="0" speed="6.54" length="9.12" shape="550.35,346.76 550.82,349.21 551.97,350.92 553.78,351.90 556.27,352.13"/>
    </edge>
    <edge id=":gneJ102_7" function="internal">
        <lane id=":gneJ102_7_0" index="0" speed="13.89" length="14.48" shape="550.35,346.76 551.16,361.21"/>
    </edge>
    <edge id=":gneJ102_8" function="internal">
        <lane id=":gneJ102_8_0" index="0" speed="7.97" length="5.86" shape="550.35,346.76 549.99,350.65 549.06,352.37"/>
    </edge>
    <edge id=":gneJ102_13" function="internal">
        <lane id=":gneJ102_13_0" index="0" speed="7.97" length="8.39" shape="549.06,352.37 548.46,353.48 545.77,355.23 541.91,355.91"/>
    </edge>
    <edge id=":gneJ102_9" function="internal">
        <lane id=":gneJ102_9_0" index="0" speed="6.47" length="9.03" shape="541.81,352.72 544.25,352.28 545.96,351.17 546.92,349.38 547.15,346.91"/>
    </edge>
    <edge id=":gneJ102_10" function="internal">
        <lane id=":gneJ102_10_0" index="0" speed="13.89" length="14.47" shape="541.81,352.72 556.27,352.13"/>
    </edge>
    <edge id=":gneJ102_11" function="internal">
        <lane id=":gneJ102_11_0" index="0" speed="8.12" length="14.31" shape="541.81,352.72 545.69,353.14 548.55,354.70 550.37,357.39 551.16,361.21"/>
    </edge>
    <edge id=":gneJ103_0" function="internal">
        <lane id=":gneJ103_0_0" index="0" speed="13.89" length="10.82" shape="534.20,242.71 534.01,239.45 533.82,237.15 533.32,234.99 532.24,232.16"/>
    </edge>
    <edge id=":gneJ103_1" function="internal">
        <lane id=":gneJ103_1_0" index="0" speed="13.89" length="9.99" shape="537.39,242.48 536.69,232.51"/>
        <lane id=":gneJ103_1_1" index="1" speed="13.89" length="9.99" shape="540.59,242.26 539.88,232.29"/>
    </edge>
    <edge id=":gneJ103_3" function="internal">
        <lane id=":gneJ103_3_0" index="0" speed="13.89" length="7.63" shape="550.06,235.02 549.01,237.04 547.95,238.33 547.17,239.67 546.97,241.80"/>
    </edge>
    <edge id=":gneJ103_4" function="internal">
        <lane id=":gneJ103_4_0" index="0" speed="13.89" length="9.99" shape="546.27,231.84 546.97,241.80"/>
        <lane id=":gneJ103_4_1" index="1" speed="13.89" length="9.99" shape="543.08,232.06 543.78,242.03"/>
    </edge>
    <edge id=":gneJ104_0" function="internal">
        <lane id=":gneJ104_0_0" index="0" speed="6.57" length="9.11" shape="570.68,892.45 570.20,890.00 569.06,888.29 567.25,887.29 564.78,887.03"/>
    </edge>
    <edge id=":gneJ104_1" function="internal">
        <lane id=":gneJ104_1_0" index="0" speed="13.89" length="14.47" shape="570.68,892.45 570.07,877.99"/>
    </edge>
    <edge id=":gneJ104_2" function="internal">
        <lane id=":gneJ104_2_0" index="0" speed="8.01" length="5.99" shape="570.68,892.45 571.04,888.58 572.04,886.72"/>
    </edge>
    <edge id=":gneJ104_12" function="internal">
        <lane id=":gneJ104_12_0" index="0" speed="8.01" length="8.24" shape="572.04,886.72 572.56,885.75 575.24,883.96 579.08,883.22"/>
    </edge>
    <edge id=":gneJ104_3" function="internal">
        <lane id=":gneJ104_3_0" index="0" speed="6.52" length="9.07" shape="579.24,886.42 576.79,886.89 575.08,888.03 574.10,889.83 573.87,892.29"/>
    </edge>
    <edge id=":gneJ104_4" function="internal">
        <lane id=":gneJ104_4_0" index="0" speed="13.89" length="14.47" shape="579.24,886.42 564.78,887.03"/>
    </edge>
    <edge id=":gneJ104_5" function="internal">
        <lane id=":gneJ104_5_0" index="0" speed="7.97" length="14.25" shape="579.24,886.42 575.34,886.06 572.52,884.53 570.76,881.84 570.07,877.99"/>
    </edge>
    <edge id=":gneJ104_6" function="internal">
        <lane id=":gneJ104_6_0" index="0" speed="6.47" length="9.03" shape="573.27,877.88 573.70,880.32 574.82,882.03 576.61,882.99 579.08,883.22"/>
    </edge>
    <edge id=":gneJ104_7" function="internal">
        <lane id=":gneJ104_7_0" index="0" speed="13.89" length="14.42" shape="573.27,877.88 573.87,892.29"/>
    </edge>
    <edge id=":gneJ104_8" function="internal">
        <lane id=":gneJ104_8_0" index="0" speed="8.01" length="5.88" shape="573.27,877.88 572.85,881.77 571.90,883.49"/>
    </edge>
    <edge id=":gneJ104_13" function="internal">
        <lane id=":gneJ104_13_0" index="0" speed="8.01" length="8.35" shape="571.90,883.49 571.30,884.59 568.61,886.34 564.78,887.03"/>
    </edge>
    <edge id=":gneJ104_9" function="internal">
        <lane id=":gneJ104_9_0" index="0" speed="6.52" length="9.07" shape="564.67,883.83 567.10,883.39 568.82,882.27 569.80,880.47 570.07,877.99"/>
    </edge>
    <edge id=":gneJ104_10" function="internal">
        <lane id=":gneJ104_10_0" index="0" speed="13.89" length="14.42" shape="564.67,883.83 579.08,883.22"/>
    </edge>
    <edge id=":gneJ104_11" function="internal">
        <lane id=":gneJ104_11_0" index="0" speed="8.05" length="14.21" shape="564.67,883.83 568.53,884.24 571.36,885.79 573.14,888.48 573.87,892.29"/>
    </edge>
    <edge id=":gneJ105_0" function="internal">
        <lane id=":gneJ105_0_0" index="0" speed="6.52" length="9.06" shape="566.46,775.14 566.03,772.71 564.91,770.99 563.11,770.00 560.64,769.73"/>
    </edge>
    <edge id=":gneJ105_1" function="internal">
        <lane id=":gneJ105_1_0" index="0" speed="13.89" length="20.83" shape="566.46,775.14 565.72,754.32"/>
    </edge>
    <edge id=":gneJ105_2" function="internal">
        <lane id=":gneJ105_2_0" index="0" speed="8.73" length="16.93" shape="566.46,775.14 566.83,769.88 568.36,766.06 571.05,763.68 574.89,762.75"/>
    </edge>
    <edge id=":gneJ105_3" function="internal">
        <lane id=":gneJ105_3_0" index="0" speed="6.59" length="9.20" shape="575.20,769.14 572.71,769.61 570.95,770.75 569.94,772.56 569.66,775.03"/>
    </edge>
    <edge id=":gneJ105_4" function="internal">
        <lane id=":gneJ105_4_0" index="0" speed="13.89" length="14.55" shape="575.20,769.14 560.64,769.73"/>
        <lane id=":gneJ105_4_1" index="1" speed="13.89" length="14.55" shape="575.05,765.94 560.53,766.54"/>
    </edge>
    <edge id=":gneJ105_6" function="internal">
        <lane id=":gneJ105_6_0" index="0" speed="8.65" length="5.35" shape="575.05,765.94 571.13,765.38 570.01,764.55"/>
    </edge>
    <edge id=":gneJ105_14" function="internal">
        <lane id=":gneJ105_14_0" index="0" speed="8.65" length="11.57" shape="570.01,764.55 568.27,763.26 566.47,759.57 565.72,754.32"/>
    </edge>
    <edge id=":gneJ105_7" function="internal">
        <lane id=":gneJ105_7_0" index="0" speed="6.48" length="9.03" shape="568.92,754.21 569.36,756.65 570.48,758.35 572.27,759.32 574.74,759.55"/>
    </edge>
    <edge id=":gneJ105_8" function="internal">
        <lane id=":gneJ105_8_0" index="0" speed="13.89" length="20.84" shape="568.92,754.21 569.66,775.03"/>
    </edge>
    <edge id=":gneJ105_9" function="internal">
        <lane id=":gneJ105_9_0" index="0" speed="8.67" length="16.90" shape="568.92,754.21 568.56,759.49 567.04,763.31 564.37,765.66 560.53,766.54"/>
    </edge>
    <edge id=":gneJ105_10" function="internal">
        <lane id=":gneJ105_10_0" index="0" speed="6.51" length="9.05" shape="560.32,760.14 562.76,759.71 564.47,758.59 565.46,756.80 565.72,754.32"/>
    </edge>
    <edge id=":gneJ105_11" function="internal">
        <lane id=":gneJ105_11_0" index="0" speed="13.89" length="14.45" shape="560.32,760.14 574.74,759.55"/>
        <lane id=":gneJ105_11_1" index="1" speed="13.89" length="14.45" shape="560.43,763.34 574.89,762.75"/>
    </edge>
    <edge id=":gneJ105_13" function="internal">
        <lane id=":gneJ105_13_0" index="0" speed="8.68" length="5.22" shape="560.43,763.34 564.31,763.96 565.33,764.74"/>
    </edge>
    <edge id=":gneJ105_15" function="internal">
        <lane id=":gneJ105_15_0" index="0" speed="8.68" length="11.65" shape="565.33,764.74 567.14,766.12 568.93,769.81 569.66,775.03"/>
    </edge>
    <edge id=":gneJ106_0" function="internal">
        <lane id=":gneJ106_0_0" index="0" speed="6.55" length="9.10" shape="560.98,623.98 560.54,621.53 559.42,619.81 557.61,618.81 555.12,618.53"/>
    </edge>
    <edge id=":gneJ106_1" function="internal">
        <lane id=":gneJ106_1_0" index="0" speed="13.89" length="14.43" shape="560.98,623.98 560.42,609.56"/>
    </edge>
    <edge id=":gneJ106_2" function="internal">
        <lane id=":gneJ106_2_0" index="0" speed="8.01" length="5.90" shape="560.98,623.98 561.39,620.11 562.36,618.35"/>
    </edge>
    <edge id=":gneJ106_12" function="internal">
        <lane id=":gneJ106_12_0" index="0" speed="8.01" length="8.28" shape="562.36,618.35 562.94,617.30 565.62,615.55 569.44,614.85"/>
    </edge>
    <edge id=":gneJ106_3" function="internal">
        <lane id=":gneJ106_3_0" index="0" speed="6.51" length="9.03" shape="569.57,618.05 567.14,618.49 565.43,619.61 564.44,621.40 564.18,623.86"/>
    </edge>
    <edge id=":gneJ106_4" function="internal">
        <lane id=":gneJ106_4_0" index="0" speed="13.89" length="14.45" shape="569.57,618.05 555.12,618.53"/>
    </edge>
    <edge id=":gneJ106_5" function="internal">
        <lane id=":gneJ106_5_0" index="0" speed="8.02" length="14.22" shape="569.57,618.05 565.70,617.65 562.89,616.10 561.13,613.40 560.42,609.56"/>
    </edge>
    <edge id=":gneJ106_6" function="internal">
        <lane id=":gneJ106_6_0" index="0" speed="6.53" length="9.07" shape="563.62,609.43 564.07,611.88 565.19,613.60 566.98,614.59 569.44,614.85"/>
    </edge>
    <edge id=":gneJ106_7" function="internal">
        <lane id=":gneJ106_7_0" index="0" speed="13.89" length="14.44" shape="563.62,609.43 564.18,623.86"/>
    </edge>
    <edge id=":gneJ106_8" function="internal">
        <lane id=":gneJ106_8_0" index="0" speed="7.98" length="5.96" shape="563.62,609.43 563.23,613.32 562.24,615.11"/>
    </edge>
    <edge id=":gneJ106_13" function="internal">
        <lane id=":gneJ106_13_0" index="0" speed="7.98" length="8.28" shape="562.24,615.11 561.68,616.13 558.98,617.87 555.12,618.53"/>
    </edge>
    <edge id=":gneJ106_9" function="internal">
        <lane id=":gneJ106_9_0" index="0" speed="6.48" length="9.03" shape="555.03,615.33 557.48,614.91 559.19,613.81 560.17,612.03 560.42,609.56"/>
    </edge>
    <edge id=":gneJ106_10" function="internal">
        <lane id=":gneJ106_10_0" index="0" speed="13.89" length="14.42" shape="555.03,615.33 569.44,614.85"/>
    </edge>
    <edge id=":gneJ106_11" function="internal">
        <lane id=":gneJ106_11_0" index="0" speed="8.04" length="14.23" shape="555.03,615.33 558.92,615.77 561.73,617.34 563.49,620.04 564.18,623.86"/>
    </edge>
    <edge id=":gneJ107_0" function="internal">
        <lane id=":gneJ107_0_0" index="0" speed="6.51" length="9.04" shape="556.17,506.98 555.72,504.55 554.60,502.84 552.80,501.86 550.34,501.62"/>
    </edge>
    <edge id=":gneJ107_1" function="internal">
        <lane id=":gneJ107_1_0" index="0" speed="13.89" length="11.21" shape="556.17,506.98 555.72,495.78"/>
    </edge>
    <edge id=":gneJ107_2" function="internal">
        <lane id=":gneJ107_2_0" index="0" speed="6.50" length="9.03" shape="564.74,501.04 562.30,501.48 560.59,502.60 559.62,504.39 559.37,506.85"/>
    </edge>
    <edge id=":gneJ107_3" function="internal">
        <lane id=":gneJ107_3_0" index="0" speed="13.89" length="14.41" shape="564.74,501.04 550.34,501.62"/>
    </edge>
    <edge id=":gneJ107_4" function="internal">
        <lane id=":gneJ107_4_0" index="0" speed="7.33" length="11.73" shape="564.74,501.04 560.87,500.84 558.08,499.89 556.36,498.21 555.72,495.78"/>
    </edge>
    <edge id=":gneJ107_5" function="internal">
        <lane id=":gneJ107_5_0" index="0" speed="13.89" length="11.20" shape="558.91,495.66 559.37,506.85"/>
    </edge>
    <edge id=":gneJ107_6" function="internal">
        <lane id=":gneJ107_6_0" index="0" speed="7.34" length="4.03" shape="558.91,495.66 558.46,498.12 557.46,499.27"/>
    </edge>
    <edge id=":gneJ107_7" function="internal">
        <lane id=":gneJ107_7_0" index="0" speed="7.34" length="7.70" shape="557.46,499.27 556.88,499.94 554.17,501.10 550.34,501.62"/>
    </edge>
    <edge id=":gneJ108_0" function="internal">
        <lane id=":gneJ108_0_0" index="0" speed="13.89" length="11.24" shape="554.87,473.94 554.26,462.71"/>
    </edge>
    <edge id=":gneJ108_1" function="internal">
        <lane id=":gneJ108_1_0" index="0" speed="7.34" length="3.97" shape="554.87,473.94 555.32,471.47 556.28,470.37"/>
    </edge>
    <edge id=":gneJ108_7" function="internal">
        <lane id=":gneJ108_7_0" index="0" speed="7.34" length="7.76" shape="556.28,470.37 556.90,469.65 559.60,468.49 563.44,467.97"/>
    </edge>
    <edge id=":gneJ108_2" function="internal">
        <lane id=":gneJ108_2_0" index="0" speed="6.60" length="9.19" shape="557.46,462.52 557.96,464.99 559.13,466.73 560.95,467.72 563.44,467.97"/>
    </edge>
    <edge id=":gneJ108_3" function="internal">
        <lane id=":gneJ108_3_0" index="0" speed="13.89" length="11.31" shape="557.46,462.52 558.06,473.81"/>
    </edge>
    <edge id=":gneJ108_4" function="internal">
        <lane id=":gneJ108_4_0" index="0" speed="6.46" length="9.03" shape="548.98,468.56 551.42,468.11 553.12,466.99 554.06,465.19 554.26,462.71"/>
    </edge>
    <edge id=":gneJ108_5" function="internal">
        <lane id=":gneJ108_5_0" index="0" speed="13.89" length="14.47" shape="548.98,468.56 563.44,467.97"/>
    </edge>
    <edge id=":gneJ108_6" function="internal">
        <lane id=":gneJ108_6_0" index="0" speed="7.35" length="11.79" shape="548.98,468.56 552.87,468.76 555.68,469.70 557.41,471.39 558.06,473.81"/>
    </edge>
    <edge id=":gneJ109_0" function="internal">
        <lane id=":gneJ109_0_0" index="0" speed="6.50" length="9.03" shape="413.04,365.71 412.60,363.27 411.48,361.56 409.69,360.58 407.23,360.33"/>
    </edge>
    <edge id=":gneJ109_1" function="internal">
        <lane id=":gneJ109_1_0" index="0" speed="13.89" length="14.41" shape="413.04,365.71 412.52,351.31"/>
    </edge>
    <edge id=":gneJ109_2" function="internal">
        <lane id=":gneJ109_2_0" index="0" speed="7.99" length="14.21" shape="413.04,365.71 413.45,361.83 415.00,359.03 417.69,357.28 421.53,356.61"/>
    </edge>
    <edge id=":gneJ109_3" function="internal">
        <lane id=":gneJ109_3_0" index="0" speed="6.50" length="9.03" shape="421.63,359.81 419.19,360.24 417.48,361.34 416.49,363.13 416.23,365.59"/>
    </edge>
    <edge id=":gneJ109_4" function="internal">
        <lane id=":gneJ109_4_0" index="0" speed="13.89" length="14.41" shape="421.63,359.81 407.23,360.33"/>
    </edge>
    <edge id=":gneJ109_5" function="internal">
        <lane id=":gneJ109_5_0" index="0" speed="8.01" length="5.90" shape="421.63,359.81 417.76,359.38 416.01,358.41"/>
    </edge>
    <edge id=":gneJ109_12" function="internal">
        <lane id=":gneJ109_12_0" index="0" speed="8.01" length="8.30" shape="416.01,358.41 414.95,357.82 413.20,355.13 412.52,351.31"/>
    </edge>
    <edge id=":gneJ109_6" function="internal">
        <lane id=":gneJ109_6_0" index="0" speed="6.52" length="9.05" shape="415.71,351.20 416.15,353.63 417.27,355.35 419.06,356.34 421.53,356.61"/>
    </edge>
    <edge id=":gneJ109_7" function="internal">
        <lane id=":gneJ109_7_0" index="0" speed="13.89" length="14.40" shape="415.71,351.20 416.23,365.59"/>
    </edge>
    <edge id=":gneJ109_8" function="internal">
        <lane id=":gneJ109_8_0" index="0" speed="8.02" length="14.20" shape="415.71,351.20 415.30,355.06 413.75,357.87 411.06,359.63 407.23,360.33"/>
    </edge>
    <edge id=":gneJ109_9" function="internal">
        <lane id=":gneJ109_9_0" index="0" speed="6.53" length="9.06" shape="407.10,357.14 409.54,356.69 411.26,355.57 412.25,353.77 412.52,351.31"/>
    </edge>
    <edge id=":gneJ109_10" function="internal">
        <lane id=":gneJ109_10_0" index="0" speed="13.89" length="14.44" shape="407.10,357.14 421.53,356.61"/>
    </edge>
    <edge id=":gneJ109_11" function="internal">
        <lane id=":gneJ109_11_0" index="0" speed="7.99" length="5.98" shape="407.10,357.14 410.97,357.53 412.80,358.53"/>
    </edge>
    <edge id=":gneJ109_13" function="internal">
        <lane id=":gneJ109_13_0" index="0" speed="7.99" length="8.23" shape="412.80,358.53 413.79,359.07 415.54,361.76 416.23,365.59"/>
    </edge>
    <edge id=":gneJ110_0" function="internal">
        <lane id=":gneJ110_0_0" index="0" speed="13.89" length="14.48" shape="98.49,377.96 97.91,363.49"/>
    </edge>
    <edge id=":gneJ110_1" function="internal">
        <lane id=":gneJ110_1_0" index="0" speed="7.98" length="14.24" shape="98.49,377.96 98.85,374.07 100.38,371.24 103.06,369.49 106.91,368.79"/>
    </edge>
    <edge id=":gneJ110_2" function="internal">
        <lane id=":gneJ110_2_0" index="0" speed="6.48" length="9.03" shape="107.03,371.99 104.58,372.43 102.88,373.55 101.91,375.34 101.68,377.81"/>
    </edge>
    <edge id=":gneJ110_3" function="internal">
        <lane id=":gneJ110_3_0" index="0" speed="8.00" length="14.23" shape="107.03,371.99 103.14,371.58 100.32,370.02 98.58,367.33 97.91,363.49"/>
    </edge>
    <edge id=":gneJ110_4" function="internal">
        <lane id=":gneJ110_4_0" index="0" speed="6.51" length="9.06" shape="101.10,363.39 101.53,365.83 102.64,367.54 104.44,368.53 106.91,368.79"/>
    </edge>
    <edge id=":gneJ110_5" function="internal">
        <lane id=":gneJ110_5_0" index="0" speed="13.89" length="14.43" shape="101.10,363.39 101.68,377.81"/>
    </edge>
    <edge id=":gneJ111_0" function="internal">
        <lane id=":gneJ111_0_0" index="0" speed="6.04" length="9.07" shape="-93.17,329.80 -95.71,329.31 -97.59,329.82 -98.83,331.34 -99.42,333.85"/>
    </edge>
    <edge id=":gneJ111_1" function="internal">
        <lane id=":gneJ111_1_0" index="0" speed="13.89" length="15.92" shape="-93.17,329.80 -108.13,324.37"/>
    </edge>
    <edge id=":gneJ111_2" function="internal">
        <lane id=":gneJ111_2_0" index="0" speed="8.80" length="6.66" shape="-93.17,329.80 -96.98,327.88 -98.61,326.12"/>
    </edge>
    <edge id=":gneJ111_12" function="internal">
        <lane id=":gneJ111_12_0" index="0" speed="8.80" length="8.93" shape="-98.61,326.12 -99.45,325.22 -100.56,321.83 -100.32,317.70"/>
    </edge>
    <edge id=":gneJ111_3" function="internal">
        <lane id=":gneJ111_3_0" index="0" speed="7.43" length="10.90" shape="-97.14,318.35 -97.32,321.21 -96.54,323.58 -94.81,325.43 -92.12,326.78"/>
    </edge>
    <edge id=":gneJ111_4" function="internal">
        <lane id=":gneJ111_4_0" index="0" speed="13.89" length="15.67" shape="-97.14,318.35 -97.87,322.13 -98.50,326.07 -99.02,330.01 -99.42,333.85"/>
    </edge>
    <edge id=":gneJ111_5" function="internal">
        <lane id=":gneJ111_5_0" index="0" speed="7.76" length="14.87" shape="-97.14,318.35 -98.57,322.27 -100.88,324.58 -104.07,325.28 -108.13,324.37"/>
    </edge>
    <edge id=":gneJ111_6" function="internal">
        <lane id=":gneJ111_6_0" index="0" speed="6.18" length="9.05" shape="-106.99,321.38 -104.51,321.93 -102.58,321.51 -101.18,320.10 -100.32,317.70"/>
    </edge>
    <edge id=":gneJ111_7" function="internal">
        <lane id=":gneJ111_7_0" index="0" speed="13.89" length="15.82" shape="-106.99,321.38 -92.12,326.78"/>
    </edge>
    <edge id=":gneJ111_8" function="internal">
        <lane id=":gneJ111_8_0" index="0" speed="9.41" length="6.21" shape="-106.99,321.38 -103.37,323.36 -101.98,324.90"/>
    </edge>
    <edge id=":gneJ111_13" function="internal">
        <lane id=":gneJ111_13_0" index="0" speed="9.41" length="9.60" shape="-101.98,324.90 -100.90,326.09 -99.59,329.59 -99.42,333.85"/>
    </edge>
    <edge id=":gneJ111_9" function="internal">
        <lane id=":gneJ111_9_0" index="0" speed="8.13" length="11.62" shape="-102.63,333.56 -102.74,330.42 -103.69,327.83 -105.49,325.82 -108.13,324.37"/>
    </edge>
    <edge id=":gneJ111_10" function="internal">
        <lane id=":gneJ111_10_0" index="0" speed="13.89" length="16.03" shape="-102.63,333.56 -102.21,329.67 -101.68,325.60 -101.04,321.55 -100.32,317.70"/>
    </edge>
    <edge id=":gneJ111_11" function="internal">
        <lane id=":gneJ111_11_0" index="0" speed="7.64" length="15.22" shape="-102.63,333.56 -101.63,329.35 -99.54,326.81 -96.38,325.96 -92.12,326.78"/>
    </edge>
    <edge id=":gneJ114_0" function="internal">
        <lane id=":gneJ114_0_0" index="0" speed="6.23" length="9.05" shape="433.80,897.60 433.37,895.11 432.24,893.46 430.41,892.66 427.89,892.71"/>
    </edge>
    <edge id=":gneJ114_1" function="internal">
        <lane id=":gneJ114_1_0" index="0" speed="13.89" length="14.81" shape="433.80,897.60 433.28,882.79"/>
    </edge>
    <edge id=":gneJ114_2" function="internal">
        <lane id=":gneJ114_2_0" index="0" speed="8.12" length="14.56" shape="433.80,897.60 434.24,893.53 435.80,890.58 438.49,888.75 442.31,888.04"/>
    </edge>
    <edge id=":gneJ114_3" function="internal">
        <lane id=":gneJ114_3_0" index="0" speed="6.65" length="9.43" shape="442.42,891.24 439.99,891.71 438.27,892.90 437.28,894.84 437.00,897.51"/>
    </edge>
    <edge id=":gneJ114_4" function="internal">
        <lane id=":gneJ114_4_0" index="0" speed="13.89" length="14.62" shape="442.42,891.24 438.73,891.43 435.13,891.74 431.54,892.17 427.89,892.71"/>
    </edge>
    <edge id=":gneJ114_5" function="internal">
        <lane id=":gneJ114_5_0" index="0" speed="8.02" length="5.60" shape="442.42,891.24 438.56,890.83 437.05,889.99"/>
    </edge>
    <edge id=":gneJ114_12" function="internal">
        <lane id=":gneJ114_12_0" index="0" speed="8.02" length="8.56" shape="437.05,889.99 435.76,889.28 434.00,886.60 433.28,882.79"/>
    </edge>
    <edge id=":gneJ114_6" function="internal">
        <lane id=":gneJ114_6_0" index="0" speed="6.53" length="9.04" shape="436.48,882.65 436.94,885.08 438.06,886.79 439.85,887.78 442.31,888.04"/>
    </edge>
    <edge id=":gneJ114_7" function="internal">
        <lane id=":gneJ114_7_0" index="0" speed="13.89" length="14.86" shape="436.48,882.65 437.00,897.51"/>
    </edge>
    <edge id=":gneJ114_8" function="internal">
        <lane id=":gneJ114_8_0" index="0" speed="8.51" length="14.72" shape="436.48,882.65 436.08,886.50 434.52,889.46 431.78,891.53 427.89,892.71"/>
    </edge>
    <edge id=":gneJ114_9" function="internal">
        <lane id=":gneJ114_9_0" index="0" speed="7.19" length="10.06" shape="427.39,889.69 430.06,888.84 431.93,887.40 433.01,885.39 433.28,882.79"/>
    </edge>
    <edge id=":gneJ114_10" function="internal">
        <lane id=":gneJ114_10_0" index="0" speed="13.89" length="15.02" shape="427.39,889.69 431.09,889.08 434.82,888.59 438.56,888.25 442.31,888.04"/>
    </edge>
    <edge id=":gneJ114_11" function="internal">
        <lane id=":gneJ114_11_0" index="0" speed="7.72" length="6.16" shape="427.39,889.69 431.50,889.54 433.39,890.33"/>
    </edge>
    <edge id=":gneJ114_13" function="internal">
        <lane id=":gneJ114_13_0" index="0" speed="7.72" length="8.52" shape="433.39,890.33 434.47,890.79 436.30,893.45 437.00,897.51"/>
    </edge>
    <edge id=":gneJ115_0" function="internal">
        <lane id=":gneJ115_0_0" index="0" speed="6.47" length="9.03" shape="429.00,779.71 428.55,777.28 427.43,775.58 425.63,774.62 423.16,774.41"/>
    </edge>
    <edge id=":gneJ115_1" function="internal">
        <lane id=":gneJ115_1_0" index="0" speed="13.89" length="20.84" shape="429.00,779.71 428.19,758.89"/>
    </edge>
    <edge id=":gneJ115_2" function="internal">
        <lane id=":gneJ115_2_0" index="0" speed="8.66" length="16.91" shape="429.00,779.71 429.34,774.42 430.85,770.60 433.53,768.25 437.37,767.37"/>
    </edge>
    <edge id=":gneJ115_3" function="internal">
        <lane id=":gneJ115_3_0" index="0" speed="6.50" length="9.05" shape="437.58,773.77 435.14,774.20 433.43,775.32 432.45,777.11 432.20,779.59"/>
    </edge>
    <edge id=":gneJ115_4" function="internal">
        <lane id=":gneJ115_4_0" index="0" speed="13.89" length="14.47" shape="437.58,773.77 423.16,774.41"/>
        <lane id=":gneJ115_4_1" index="1" speed="13.89" length="14.47" shape="437.48,770.57 422.98,771.21"/>
    </edge>
    <edge id=":gneJ115_6" function="internal">
        <lane id=":gneJ115_6_0" index="0" speed="8.69" length="5.21" shape="437.48,770.57 433.58,769.95 432.57,769.19"/>
    </edge>
    <edge id=":gneJ115_14" function="internal">
        <lane id=":gneJ115_14_0" index="0" speed="8.69" length="11.68" shape="432.57,769.19 430.74,767.80 428.94,764.11 428.19,758.89"/>
    </edge>
    <edge id=":gneJ115_7" function="internal">
        <lane id=":gneJ115_7_0" index="0" speed="6.54" length="9.10" shape="431.39,758.77 431.84,761.21 432.96,762.92 434.77,763.91 437.27,764.17"/>
    </edge>
    <edge id=":gneJ115_8" function="internal">
        <lane id=":gneJ115_8_0" index="0" speed="13.89" length="20.83" shape="431.39,758.77 432.20,779.59"/>
    </edge>
    <edge id=":gneJ115_9" function="internal">
        <lane id=":gneJ115_9_0" index="0" speed="8.75" length="16.95" shape="431.39,758.77 431.03,764.03 429.51,767.86 426.83,770.25 422.98,771.21"/>
    </edge>
    <edge id=":gneJ115_10" function="internal">
        <lane id=":gneJ115_10_0" index="0" speed="6.61" length="9.23" shape="422.63,764.82 425.14,764.33 426.91,763.18 427.92,761.37 428.19,758.89"/>
    </edge>
    <edge id=":gneJ115_11" function="internal">
        <lane id=":gneJ115_11_0" index="0" speed="13.89" length="14.62" shape="422.63,764.82 437.27,764.17"/>
        <lane id=":gneJ115_11_1" index="1" speed="13.89" length="14.62" shape="422.81,768.02 437.37,767.37"/>
    </edge>
    <edge id=":gneJ115_13" function="internal">
        <lane id=":gneJ115_13_0" index="0" speed="8.65" length="5.38" shape="422.81,768.02 426.73,768.55 427.88,769.39"/>
    </edge>
    <edge id=":gneJ115_15" function="internal">
        <lane id=":gneJ115_15_0" index="0" speed="8.65" length="11.55" shape="427.88,769.39 429.61,770.66 431.43,774.34 432.20,779.59"/>
    </edge>
    <edge id=":gneJ116_0" function="internal">
        <lane id=":gneJ116_0_0" index="0" speed="6.49" length="9.03" shape="-86.80,902.69 -87.25,900.25 -88.37,898.55 -90.17,897.59 -92.64,897.36"/>
    </edge>
    <edge id=":gneJ116_1" function="internal">
        <lane id=":gneJ116_1_0" index="0" speed="13.89" length="20.82" shape="-86.80,902.69 -87.66,881.88"/>
    </edge>
    <edge id=":gneJ116_2" function="internal">
        <lane id=":gneJ116_2_0" index="0" speed="8.67" length="16.88" shape="-86.80,902.69 -86.46,897.40 -84.97,893.58 -82.31,891.22 -78.49,890.32"/>
    </edge>
    <edge id=":gneJ116_3" function="internal">