<?xml version="1.0" encoding="UTF-8"?>

<!-- generated on 12/14/20 10:59:38 by Eclipse SUMO od2trips Version 1.8.0
<configuration xmlns:xsi="http://www.w3.org/2001/XMLSchema-instance" xsi:noNamespaceSchemaLocation="http://sumo.dlr.de/xsd/od2tripsConfiguration.xsd">

    <input>
        <taz-files value="taz.add.xml"/>
        <od-amitran-files value="out_in\csv\morning.csv.od.xml"/>
    </input>

    <output>
        <output-file value="morning.trips.xml"/>
    </output>

    <defaults>
        <departlane value="best"/>
    </defaults>

    <report>
        <verbose value="true"/>
    </report>

</configuration>
-->

<routes xmlns:xsi="http://www.w3.org/2001/XMLSchema-instance" xsi:noNamespaceSchemaLocation="http://sumo.dlr.de/xsd/routes_file.xsd">
    <trip id="146" depart="2.36" from="gneE543" to="gneE435" type="0" fromTaz="101" toTaz="38" departLane="best" departSpeed="max"/>
    <trip id="255" depart="2.83" from="gneE385" to="gneE466" type="0" fromTaz="102" toTaz="33" departLane="best" departSpeed="max"/>
    <trip id="6076" depart="3.21" from="-gneE355" to="gneE567.74" type="0" fromTaz="47" toTaz="106" departLane="best" departSpeed="max"/>
    <trip id="2896" depart="4.33" from="gneE577" to="gneE466" type="0" fromTaz="109" toTaz="33" departLane="best" departSpeed="max"/>
    <trip id="483" depart="4.77" from="gneE179" to="gneE446" type="0" fromTaz="103" toTaz="14" departLane="best" departSpeed="max"/>
    <trip id="3727" depart="4.80" from="gneE290" to="-gneE179.27" type="0" fromTaz="21" toTaz="103" departLane="best" departSpeed="max"/>
    <trip id="7058" depart="5.04" from="gneE292" to="gneE542.128" type="0" fromTaz="7" toTaz="101" departLane="best" departSpeed="max"/>
    <trip id="7157" depart="5.67" from="-gneE451" to="gneE549.67" type="0" fromTaz="8" toTaz="105" departLane="best" departSpeed="max"/>
    <trip id="4344" depart="6.04" from="gneE303" to="gneE549.67" type="0" fromTaz="29" toTaz="105" departLane="best" departSpeed="max"/>
    <trip id="6720" depart="6.33" from="gneE129" to="gneE567.74" type="0" fromTaz="52" toTaz="106" departLane="best" departSpeed="max"/>
    <trip id="5739" depart="6.68" from="-gneE370" to="gneE570" type="0" fromTaz="43" toTaz="107" departLane="best" departSpeed="max"/>
    <trip id="6556" depart="7.18" from="-gneE166" to="gneE542.128" type="0" fromTaz="51" toTaz="101" departLane="best" departSpeed="max"/>
    <trip id="5240" depart="7.63" from="-gneE398" to="gneE550.54" type="0" fromTaz="4" toTaz="104" departLane="best" departSpeed="max"/>
    <trip id="3603" depart="7.99" from="gneE164.26" to="gneE549.67" type="0" fromTaz="17" toTaz="105" departLane="best" departSpeed="max"/>
    <trip id="6311" depart="8.42" from="gneE327" to="gneE567.74" type="0" fromTaz="49" toTaz="106" departLane="best" departSpeed="max"/>
    <trip id="5520" depart="8.97" from="-gneE367" to="gneE567.74" type="0" fromTaz="41" toTaz="106" departLane="best" departSpeed="max"/>
    <trip id="3455" depart="8.99" from="gneE278" to="gneE576.71" type="0" fromTaz="15" toTaz="109" departLane="best" departSpeed="max"/>
    <trip id="6825" depart="9.39" from="-gneE452" to="gneE570" type="0" fromTaz="53" toTaz="107" departLane="best" departSpeed="max"/>
    <trip id="2166" depart="10.87" from="-gneE567" to="gneE469" type="0" fromTaz="106" toTaz="33" departLane="best" departSpeed="max"/>
    <trip id="2888" depart="11.00" from="gneE577" to="gneE464" type="0" fromTaz="109" toTaz="33" departLane="best" departSpeed="max"/>
    <trip id="220" depart="11.12" from="gneE385" to="gneE496" type="0" fromTaz="102" toTaz="25" departLane="best" departSpeed="max"/>
    <trip id="1915" depart="11.45" from="-gneE567" to="gneE269" type="0" fromTaz="106" toTaz="10" departLane="best" departSpeed="max"/>
    <trip id="2287" depart="11.57" from="-gneE567" to="gneE361" type="0" fromTaz="106" toTaz="45" departLane="best" departSpeed="max"/>
    <trip id="4067" depart="11.71" from="-gneE496" to="gneE567.74" type="0" fromTaz="25" toTaz="106" departLane="best" departSpeed="max"/>
    <trip id="1519" depart="14.07" from="gneE551" to="gneE355" type="0" fromTaz="104" toTaz="47" departLane="best" departSpeed="max"/>
    <trip id="2641" depart="14.43" from="gneE571" to="gneE397" type="0" fromTaz="107" toTaz="5" departLane="best" departSpeed="max"/>
    <trip id="3914" depart="14.89" from="-gneE479" to="gneE570" type="0" fromTaz="22" toTaz="107" departLane="best" departSpeed="max"/>
    <trip id="6649" depart="15.55" from="-gneE166" to="gneE576.71" type="0" fromTaz="51" toTaz="109" departLane="best" departSpeed="max"/>
    <trip id="6597" depart="15.74" from="-gneE128" to="gneE549.67" type="0" fromTaz="51" toTaz="105" departLane="best" departSpeed="max"/>
    <trip id="2450" depart="15.90" from="gneE571" to="gneE306" type="0" fromTaz="107" toTaz="31" departLane="best" departSpeed="max"/>
    <trip id="3717" depart="16.08" from="gneE290" to="gneE542.128" type="0" fromTaz="21" toTaz="101" departLane="best" departSpeed="max"/>
    <trip id="4429" depart="18.30" from="-gneE445" to="gneE550.54" type="0" fromTaz="3" toTaz="104" departLane="best" departSpeed="max"/>
    <trip id="2686" depart="18.38" from="gneE581" to="-gneE164" type="0" fromTaz="108" toTaz="17" departLane="best" departSpeed="max"/>
    <trip id="4453" depart="18.64" from="-gneE445" to="gneE549.67" type="0" fromTaz="3" toTaz="105" departLane="best" departSpeed="max"/>
    <trip id="3316" depart="18.86" from="gneE276" to="gneE567.74" type="0" fromTaz="14" toTaz="106" departLane="best" departSpeed="max"/>
    <trip id="4358" depart="18.94" from="gneE303" to="gneE570" type="0" fromTaz="29" toTaz="107" departLane="best" departSpeed="max"/>
    <trip id="704" depart="18.97" from="gneE179" to="gneE340" type="0" fromTaz="103" toTaz="45" departLane="best" departSpeed="max"/>
    <trip id="380" depart="19.61" from="gneE385" to="gneE589" type="0" fromTaz="102" toTaz="45" departLane="best" departSpeed="max"/>
    <trip id="4715" depart="19.62" from="-gneE463" to="gneE567.74" type="0" fromTaz="32" toTaz="106" departLane="best" departSpeed="max"/>
    <trip id="6840" depart="20.52" from="-gneE452" to="gneE582.65" type="0" fromTaz="53" toTaz="108" departLane="best" departSpeed="max"/>
    <trip id="4451" depart="21.21" from="-gneE445" to="gneE549.67" type="0" fromTaz="3" toTaz="105" departLane="best" departSpeed="max"/>
    <trip id="1985" depart="21.26" from="-gneE567" to="gneE471" type="0" fromTaz="106" toTaz="24" departLane="best" departSpeed="max"/>
    <trip id="1535" depart="21.76" from="gneE551" to="gneE326" type="0" fromTaz="104" toTaz="49" departLane="best" departSpeed="max"/>
    <trip id="4465" depart="22.42" from="-gneE445" to="gneE567.74" type="0" fromTaz="3" toTaz="106" departLane="best" departSpeed="max"/>
    <trip id="2242" depart="22.47" from="-gneE567" to="gneE342" type="0" fromTaz="106" toTaz="45" departLane="best" departSpeed="max"/>
    <trip id="2913" depart="22.69" from="gneE577" to="-gneE470" type="0" fromTaz="109" toTaz="33" departLane="best" departSpeed="max"/>
    <trip id="1336" depart="22.82" from="gneE551" to="gneE367" type="0" fromTaz="104" toTaz="41" departLane="best" departSpeed="max"/>
    <trip id="360" depart="23.05" from="gneE385" to="gneE431" type="0" fromTaz="102" toTaz="40" departLane="best" departSpeed="max"/>
    <trip id="1087" depart="23.89" from="gneE551" to="gneE469" type="0" fromTaz="104" toTaz="33" departLane="best" departSpeed="max"/>
    <trip id="6634" depart="24.09" from="-gneE166" to="gneE570" type="0" fromTaz="51" toTaz="107" departLane="best" departSpeed="max"/>
    <trip id="6749" depart="24.19" from="gneE129" to="gneE576.71" type="0" fromTaz="52" toTaz="109" departLane="best" departSpeed="max"/>
    <trip id="1367" depart="24.44" from="gneE551" to="gneE370" type="0" fromTaz="104" toTaz="43" departLane="best" departSpeed="max"/>
    <trip id="6138" depart="24.78" from="-gneE352" to="gneE570" type="0" fromTaz="47" toTaz="107" departLane="best" departSpeed="max"/>
    <trip id="3645" depart="25.71" from="gneE164.26" to="gneE570" type="0" fromTaz="17" toTaz="107" departLane="best" departSpeed="max"/>
    <trip id="1701" depart="25.86" from="-gneE549" to="gneE302" type="0" fromTaz="105" toTaz="29" departLane="best" departSpeed="max"/>
    <trip id="3290" depart="27.26" from="-gneE446" to="gneE550.54" type="0" fromTaz="14" toTaz="104" departLane="best" departSpeed="max"/>
    <trip id="6151" depart="27.62" from="-gneE351" to="gneE570" type="0" fromTaz="47" toTaz="107" departLane="best" departSpeed="max"/>
    <trip id="5244" depart="28.04" from="-gneE398" to="gneE550.54" type="0" fromTaz="4" toTaz="104" departLane="best" departSpeed="max"/>
    <trip id="6536" depart="28.51" from="-gneE166" to="gneE582.65" type="0" fromTaz="50" toTaz="108" departLane="best" departSpeed="max"/>
    <trip id="3811" depart="28.73" from="gneE290" to="gneE570" type="0" fromTaz="21" toTaz="107" departLane="best" departSpeed="max"/>
    <trip id="6787" depart="28.74" from="-gneE452" to="gneE550.54" type="0" fromTaz="53" toTaz="104" departLane="best" departSpeed="max"/>
    <trip id="3407" depart="29.89" from="gneE278" to="gneE549.67" type="0" fromTaz="15" toTaz="105" departLane="best" departSpeed="max"/>
    <trip id="2428" depart="30.03" from="gneE571" to="gneE471" type="0" fromTaz="107" toTaz="24" departLane="best" departSpeed="max"/>
    <trip id="5652" depart="30.26" from="-gneE370" to="gneE542.128" type="0" fromTaz="43" toTaz="101" departLane="best" departSpeed="max"/>
    <trip id="6294" depart="31.39" from="gneE6" to="gneE550.54" type="0" fromTaz="49" toTaz="104" departLane="best" departSpeed="max"/>
    <trip id="634" depart="33.54" from="gneE179" to="gneE478" type="0" fromTaz="103" toTaz="35" departLane="best" departSpeed="max"/>
    <trip id="1666" depart="35.18" from="-gneE549" to="gneE277" type="0" fromTaz="105" toTaz="15" departLane="best" departSpeed="max"/>
    <trip id="4661" depart="35.81" from="-gneE459" to="gneE570" type="0" fromTaz="31" toTaz="107" departLane="best" departSpeed="max"/>
    <trip id="3521" depart="35.90" from="-gneE481" to="gneE567.74" type="0" fromTaz="16" toTaz="106" departLane="best" departSpeed="max"/>
    <trip id="2879" depart="36.22" from="gneE577" to="gneE464" type="0" fromTaz="109" toTaz="33" departLane="best" departSpeed="max"/>
    <trip id="1232" depart="36.35" from="gneE551" to="-gneE470" type="0" fromTaz="104" toTaz="33" departLane="best" departSpeed="max"/>
    <trip id="2278" depart="37.22" from="-gneE567" to="gneE360" type="0" fromTaz="106" toTaz="45" departLane="best" departSpeed="max"/>
    <trip id="3367" depart="37.57" from="gneE278" to="gneE542.128" type="0" fromTaz="15" toTaz="101" departLane="best" departSpeed="max"/>
    <trip id="2847" depart="37.59" from="gneE577" to="gneE466" type="0" fromTaz="109" toTaz="33" departLane="best" departSpeed="max"/>
    <trip id="4947" depart="37.86" from="gneE319" to="gneE570" type="0" fromTaz="36" toTaz="107" departLane="best" departSpeed="max"/>
    <trip id="7012" depart="38.43" from="-gneE138" to="gneE567.74" type="0" fromTaz="55" toTaz="106" departLane="best" departSpeed="max"/>
    <trip id="1813" depart="38.67" from="-gneE549" to="gneE398" type="0" fromTaz="105" toTaz="4" departLane="best" departSpeed="max"/>
    <trip id="821" depart="38.97" from="gneE551" to="gneE277" type="0" fromTaz="104" toTaz="15" departLane="best" departSpeed="max"/>
    <trip id="4769" depart="39.00" from="gneE339" to="gneE542.128" type="0" fromTaz="34" toTaz="101" departLane="best" departSpeed="max"/>
    <trip id="129" depart="39.03" from="gneE543" to="gneE464" type="0" fromTaz="101" toTaz="33" departLane="best" departSpeed="max"/>
    <trip id="7061" depart="40.88" from="gneE249" to="gneE409.250.460" type="0" fromTaz="7" toTaz="102" departLane="best" departSpeed="max"/>
    <trip id="3227" depart="42.24" from="-gneE447" to="gneE567.74" type="0" fromTaz="13" toTaz="106" departLane="best" departSpeed="max"/>
    <trip id="3428" depart="42.40" from="gneE278" to="gneE567.74" type="0" fromTaz="15" toTaz="106" departLane="best" departSpeed="max"/>
    <trip id="3531" depart="42.53" from="-gneE481" to="gneE570" type="0" fromTaz="16" toTaz="107" departLane="best" departSpeed="max"/>
    <trip id="6189" depart="42.57" from="-gneE354" to="gneE576.71" type="0" fromTaz="47" toTaz="109" departLane="best" departSpeed="max"/>
    <trip id="4544" depart="43.31" from="-gneE445" to="gneE576.71" type="0" fromTaz="3" toTaz="109" departLane="best" departSpeed="max"/>
    <trip id="6108" depart="44.44" from="-gneE352" to="gneE567.74" type="0" fromTaz="47" toTaz="106" departLane="best" departSpeed="max"/>
    <trip id="5717" depart="44.45" from="-gneE370" to="gneE567.74" type="0" fromTaz="43" toTaz="106" departLane="best" departSpeed="max"/>
    <trip id="5458" depart="44.64" from="gneE510" to="gneE549.67" type="0" fromTaz="41" toTaz="105" departLane="best" departSpeed="max"/>
    <trip id="2820" depart="44.72" from="gneE577" to="gneE490.44" type="0" fromTaz="109" toTaz="28" departLane="best" departSpeed="max"/>
    <trip id="1355" depart="44.99" from="gneE551" to="gneE369" type="0" fromTaz="104" toTaz="42" departLane="best" departSpeed="max"/>
    <trip id="4516" depart="46.74" from="-gneE445" to="gneE582.65" type="0" fromTaz="3" toTaz="108" departLane="best" departSpeed="max"/>
    <trip id="3613" depart="46.80" from="gneE164.26" to="gneE549.67" type="0" fromTaz="17" toTaz="105" departLane="best" departSpeed="max"/>
    <trip id="2736" depart="46.85" from="gneE581" to="gneE398" type="0" fromTaz="108" toTaz="4" departLane="best" departSpeed="max"/>
    <trip id="531" depart="46.90" from="gneE179" to="gneE445" type="0" fromTaz="103" toTaz="3" departLane="best" departSpeed="max"/>
    <trip id="727" depart="47.16" from="gneE179" to="gneE396" type="0" fromTaz="103" toTaz="5" departLane="best" departSpeed="max"/>
    <trip id="3505" depart="47.47" from="-gneE481" to="gneE549.67" type="0" fromTaz="16" toTaz="105" departLane="best" departSpeed="max"/>
    <trip id="5608" depart="48.54" from="-gneE365" to="gneE576.71" type="0" fromTaz="41" toTaz="109" departLane="best" departSpeed="max"/>
    <trip id="1187" depart="49.05" from="gneE551" to="gneE464" type="0" fromTaz="104" toTaz="33" departLane="best" departSpeed="max"/>
    <trip id="2296" depart="49.06" from="-gneE567" to="gneE362" type="0" fromTaz="106" toTaz="45" departLane="best" departSpeed="max"/>
    <trip id="2252" depart="49.22" from="-gneE567" to="gneE588" type="0" fromTaz="106" toTaz="45" departLane="best" departSpeed="max"/>
    <trip id="2767" depart="49.53" from="gneE577" to="gneE400.62" type="0" fromTaz="109" toTaz="1" departLane="best" departSpeed="max"/>
    <trip id="4253" depart="49.85" from="-gneE494" to="gneE549.67" type="0" fromTaz="28" toTaz="105" departLane="best" departSpeed="max"/>
    <trip id="1972" depart="49.85" from="-gneE567" to="gneE289" type="0" fromTaz="106" toTaz="21" departLane="best" departSpeed="max"/>
    <trip id="4756" depart="50.43" from="-gneE467" to="gneE567.74" type="0" fromTaz="33" toTaz="106" departLane="best" departSpeed="max"/>
    <trip id="3871" depart="50.70" from="-gneE479" to="gneE550.54" type="0" fromTaz="22" toTaz="104" departLane="best" departSpeed="max"/>
    <trip id="2454" depart="50.82" from="gneE571" to="gneE308" type="0" fromTaz="107" toTaz="32" departLane="best" departSpeed="max"/>
    <trip id="1385" depart="51.33" from="gneE551" to="gneE362" type="0" fromTaz="104" toTaz="45" departLane="best" departSpeed="max"/>
    <trip id="3420" depart="53.26" from="gneE278" to="gneE567.74" type="0" fromTaz="15" toTaz="106" departLane="best" departSpeed="max"/>
    <trip id="5037" depart="53.29" from="gneE317" to="gneE582.65" type="0" fromTaz="37" toTaz="108" departLane="best" departSpeed="max"/>
    <trip id="1610" depart="53.94" from="gneE551" to="gneE138" type="0" fromTaz="104" toTaz="55" departLane="best" departSpeed="max"/>
    <trip id="4712" depart="54.11" from="-gneE463" to="gneE567.74" type="0" fromTaz="32" toTaz="106" departLane="best" departSpeed="max"/>
    <trip id="6097" depart="54.38" from="-gneE353" to="gneE567.74" type="0" fromTaz="47" toTaz="106" departLane="best" departSpeed="max"/>
    <trip id="3782" depart="55.11" from="gneE290" to="gneE567.74" type="0" fromTaz="21" toTaz="106" departLane="best" departSpeed="max"/>
    <trip id="5" depart="55.65" from="-gneE400" to="gneE409.250.460" type="0" fromTaz="1" toTaz="102" departLane="best" departSpeed="max"/>
    <trip id="905" depart="57.01" from="gneE551" to="gneE496" type="0" fromTaz="104" toTaz="25" departLane="best" departSpeed="max"/>
    <trip id="6655" depart="57.81" from="-gneE128" to="gneE576.71" type="0" fromTaz="51" toTaz="109" departLane="best" departSpeed="max"/>
    <trip id="3203" depart="58.83" from="-gneE447" to="gneE550.54" type="0" fromTaz="13" toTaz="104" departLane="best" departSpeed="max"/>
    <trip id="6496" depart="58.89" from="gneE6" to="gneE549.67" type="0" fromTaz="50" toTaz="105" departLane="best" departSpeed="max"/>
    <trip id="3522" depart="59.01" from="-gneE481" to="gneE567.74" type="0" fromTaz="16" toTaz="106" departLane="best" departSpeed="max"/>
    <trip id="994" depart="59.07" from="gneE551" to="gneE467" type="0" fromTaz="104" toTaz="33" departLane="best" departSpeed="max"/>
    <trip id="2652" depart="59.75" from="gneE571" to="-gneE129" type="0" fromTaz="107" toTaz="52" departLane="best" departSpeed="max"/>
    <trip id="1369" depart="59.85" from="gneE551" to="gneE370" type="0" fromTaz="104" toTaz="43" departLane="best" departSpeed="max"/>
    <trip id="3448" depart="60.66" from="gneE278" to="gneE582.65" type="0" fromTaz="15" toTaz="108" departLane="best" departSpeed="max"/>
    <trip id="1679" depart="60.85" from="-gneE549" to="gneE289" type="0" fromTaz="105" toTaz="21" departLane="best" departSpeed="max"/>
    <trip id="6183" depart="61.88" from="-gneE352" to="gneE576.71" type="0" fromTaz="47" toTaz="109" departLane="best" departSpeed="max"/>
    <trip id="5704" depart="62.31" from="-gneE370" to="gneE549.67" type="0" fromTaz="43" toTaz="105" departLane="best" departSpeed="max"/>
    <trip id="1097" depart="63.18" from="gneE551" to="gneE467" type="0" fromTaz="104" toTaz="33" departLane="best" departSpeed="max"/>
    <trip id="716" depart="63.32" from="gneE179" to="gneE355" type="0" fromTaz="103" toTaz="47" departLane="best" departSpeed="max"/>
    <trip id="2554" depart="63.60" from="gneE571" to="gneE318" type="0" fromTaz="107" toTaz="36" departLane="best" departSpeed="max"/>
    <trip id="2095" depart="64.13" from="-gneE567" to="gneE464" type="0" fromTaz="106" toTaz="33" departLane="best" departSpeed="max"/>
    <trip id="6596" depart="64.28" from="-gneE166" to="gneE549.67" type="0" fromTaz="51" toTaz="105" departLane="best" departSpeed="max"/>
    <trip id="1795" depart="65.23" from="-gneE549" to="gneE467" type="0" fromTaz="105" toTaz="33" departLane="best" departSpeed="max"/>
    <trip id="5994" depart="65.71" from="-gneE351" to="-gneE179.27" type="0" fromTaz="47" toTaz="103" departLane="best" departSpeed="max"/>
    <trip id="4819" depart="65.98" from="-gneE478" to="-gneE179.27" type="0" fromTaz="35" toTaz="103" departLane="best" departSpeed="max"/>
    <trip id="2317" depart="66.85" from="-gneE567" to="gneE465" type="0" fromTaz="106" toTaz="48" departLane="best" departSpeed="max"/>
    <trip id="3792" depart="67.39" from="gneE290" to="gneE567.74" type="0" fromTaz="21" toTaz="106" departLane="best" departSpeed="max"/>
    <trip id="4811" depart="69.75" from="gneE339" to="gneE576.71" type="0" fromTaz="34" toTaz="109" departLane="best" departSpeed="max"/>
    <trip id="3840" depart="70.47" from="gneE290" to="gneE576.71" type="0" fromTaz="21" toTaz="109" departLane="best" departSpeed="max"/>
    <trip id="1753" depart="70.69" from="-gneE549" to="gneE464" type="0" fromTaz="105" toTaz="33" departLane="best" departSpeed="max"/>
    <trip id="556" depart="70.72" from="gneE179" to="gneE464" type="0" fromTaz="103" toTaz="33" departLane="best" departSpeed="max"/>
    <trip id="5373" depart="70.96" from="-gneE365" to="gneE542.128" type="0" fromTaz="41" toTaz="101" departLane="best" departSpeed="max"/>
    <trip id="4329" depart="71.40" from="gneE303" to="-gneE179.27" type="0" fromTaz="29" toTaz="103" departLane="best" departSpeed="max"/>
    <trip id="7136" depart="71.48" from="-gneE451" to="-gneE179.27" type="0" fromTaz="8" toTaz="103" departLane="best" departSpeed="max"/>
    <trip id="3524" depart="71.75" from="-gneE481" to="gneE567.74" type="0" fromTaz="16" toTaz="106" departLane="best" departSpeed="max"/>
    <trip id="5928" depart="72.15" from="-gneE357" to="gneE549.67" type="0" fromTaz="46" toTaz="105" departLane="best" departSpeed="max"/>
    <trip id="6247" depart="72.75" from="-gneE462" to="gneE570" type="0" fromTaz="48" toTaz="107" departLane="best" departSpeed="max"/>
    <trip id="1019" depart="72.86" from="gneE551" to="gneE464" type="0" fromTaz="104" toTaz="33" departLane="best" departSpeed="max"/>
    <trip id="4064" depart="73.45" from="-gneE496" to="gneE567.74" type="0" fromTaz="25" toTaz="106" departLane="best" departSpeed="max"/>
    <trip id="5980" depart="73.58" from="-gneE351" to="-gneE179.27" type="0" fromTaz="47" toTaz="103" departLane="best" departSpeed="max"/>
    <trip id="546" depart="73.98" from="gneE179" to="gneE468" type="0" fromTaz="103" toTaz="33" departLane="best" departSpeed="max"/>
    <trip id="3907" depart="74.05" from="-gneE479" to="gneE567.74" type="0" fromTaz="22" toTaz="106" departLane="best" departSpeed="max"/>
    <trip id="2898" depart="74.14" from="gneE577" to="gneE469" type="0" fromTaz="109" toTaz="33" departLane="best" departSpeed="max"/>
    <trip id="3784" depart="74.51" from="gneE290" to="gneE567.74" type="0" fromTaz="21" toTaz="106" departLane="best" departSpeed="max"/>
    <trip id="4243" depart="75.03" from="-gneE491" to="gneE550.54" type="0" fromTaz="28" toTaz="104" departLane="best" departSpeed="max"/>
    <trip id="3995" depart="75.42" from="-gneE471" to="gneE570" type="0" fromTaz="24" toTaz="107" departLane="best" departSpeed="max"/>
    <trip id="667" depart="76.05" from="gneE179" to="gneE370" type="0" fromTaz="103" toTaz="43" departLane="best" departSpeed="max"/>
    <trip id="4102" depart="76.23" from="-gneE495" to="gneE409.250.460" type="0" fromTaz="26" toTaz="102" departLane="best" departSpeed="max"/>
    <trip id="3920" depart="76.46" from="-gneE479" to="gneE570" type="0" fromTaz="22" toTaz="107" departLane="best" departSpeed="max"/>
    <trip id="5799" depart="76.46" from="-gneE371" to="-gneE179.27" type="0" fromTaz="44" toTaz="103" departLane="best" departSpeed="max"/>
    <trip id="4142" depart="76.65" from="gneE297" to="gneE570" type="0" fromTaz="26" toTaz="107" departLane="best" departSpeed="max"/>
    <trip id="2279" depart="77.29" from="-gneE567" to="gneE361" type="0" fromTaz="106" toTaz="45" departLane="best" departSpeed="max"/>
    <trip id="6500" depart="77.48" from="gneE6" to="gneE549.67" type="0" fromTaz="50" toTaz="105" departLane="best" departSpeed="max"/>
    <trip id="3963" depart="77.78" from="-gneE471" to="gneE550.54" type="0" fromTaz="24" toTaz="104" departLane="best" departSpeed="max"/>
    <trip id="386" depart="77.89" from="gneE385" to="gneE362" type="0" fromTaz="102" toTaz="45" departLane="best" departSpeed="max"/>
    <trip id="5936" depart="78.51" from="-gneE356" to="gneE570" type="0" fromTaz="46" toTaz="107" departLane="best" departSpeed="max"/>
    <trip id="6201" depart="79.19" from="-gneE355" to="gneE576.71" type="0" fromTaz="47" toTaz="109" departLane="best" departSpeed="max"/>
    <trip id="476" depart="80.11" from="gneE179" to="gneE271" type="0" fromTaz="103" toTaz="12" departLane="best" departSpeed="max"/>
    <trip id="2522" depart="80.18" from="gneE571" to="gneE466" type="0" fromTaz="107" toTaz="33" departLane="best" departSpeed="max"/>
    <trip id="5375" depart="81.49" from="gneE510" to="gneE542.128" type="0" fromTaz="41" toTaz="101" departLane="best" departSpeed="max"/>
    <trip id="1707" depart="81.55" from="-gneE549" to="gneE458" type="0" fromTaz="105" toTaz="30" departLane="best" departSpeed="max"/>
    <trip id="2030" depart="81.58" from="-gneE567" to="gneE468" type="0" fromTaz="106" toTaz="33" departLane="best" departSpeed="max"/>
    <trip id="5231" depart="83.35" from="-gneE398" to="gneE550.54" type="0" fromTaz="4" toTaz="104" departLane="best" departSpeed="max"/>
    <trip id="4508" depart="84.33" from="-gneE445" to="gneE570" type="0" fromTaz="3" toTaz="107" departLane="best" departSpeed="max"/>
    <trip id="4727" depart="84.36" from="gneE309" to="gneE570" type="0" fromTaz="32" toTaz="107" departLane="best" departSpeed="max"/>
    <trip id="6755" depart="85.05" from="gneE129" to="gneE576.71" type="0" fromTaz="52" toTaz="109" departLane="best" departSpeed="max"/>
    <trip id="1693" depart="85.62" from="-gneE549" to="gneE495" type="0" fromTaz="105" toTaz="26" departLane="best" departSpeed="max"/>
    <trip id="2807" depart="85.77" from="gneE577" to="gneE479" type="0" fromTaz="109" toTaz="22" departLane="best" departSpeed="max"/>
    <trip id="5486" depart="86.07" from="-gneE367" to="gneE549.67" type="0" fromTaz="41" toTaz="105" departLane="best" departSpeed="max"/>
    <trip id="2645" depart="86.44" from="gneE571" to="gneE166" type="0" fromTaz="107" toTaz="50" departLane="best" departSpeed="max"/>
    <trip id="3172" depart="87.07" from="gneE272" to="gneE576.71" type="0" fromTaz="12" toTaz="109" departLane="best" departSpeed="max"/>
    <trip id="2402" depart="87.20" from="gneE571" to="gneE277" type="0" fromTaz="107" toTaz="15" departLane="best" departSpeed="max"/>
    <trip id="4721" depart="87.70" from="-gneE463" to="gneE570" type="0" fromTaz="32" toTaz="107" departLane="best" departSpeed="max"/>
    <trip id="5131" depart="88.45" from="-gneE435" to="gneE576.71" type="0" fromTaz="38" toTaz="109" departLane="best" departSpeed="max"/>
    <trip id="5558" depart="88.48" from="-gneE367" to="gneE570" type="0" fromTaz="41" toTaz="107" departLane="best" departSpeed="max"/>
    <trip id="171" depart="88.60" from="gneE543" to="gneE265" type="0" fromTaz="101" toTaz="8" departLane="best" departSpeed="max"/>
    <trip id="778" depart="88.88" from="gneE551" to="gneE271" type="0" fromTaz="104" toTaz="12" departLane="best" departSpeed="max"/>
    <trip id="92" depart="89.60" from="gneE270" to="gneE570" type="0" fromTaz="10" toTaz="107" departLane="best" departSpeed="max"/>
    <trip id="5654" depart="89.66" from="-gneE370" to="gneE542.128" type="0" fromTaz="43" toTaz="101" departLane="best" departSpeed="max"/>
    <trip id="6670" depart="89.67" from="gneE129" to="-gneE179.27" type="0" fromTaz="52" toTaz="103" departLane="best" departSpeed="max"/>
    <trip id="5565" depart="90.16" from="-gneE365" to="gneE570" type="0" fromTaz="41" toTaz="107" departLane="best" departSpeed="max"/>
    <trip id="2177" depart="90.65" from="-gneE567" to="gneE338" type="0" fromTaz="106" toTaz="34" departLane="best" departSpeed="max"/>
    <trip id="1634" depart="90.97" from="gneE551" to="gneE265" type="0" fromTaz="104" toTaz="8" departLane="best" departSpeed="max"/>
    <trip id="4299" depart="91.43" from="-gneE490" to="gneE582.65" type="0" fromTaz="28" toTaz="108" departLane="best" departSpeed="max"/>
    <trip id="855" depart="92.51" from="gneE551" to="-gneE164" type="0" fromTaz="104" toTaz="17" departLane="best" departSpeed="max"/>
    <trip id="6022" depart="93.55" from="-gneE355" to="gneE550.54" type="0" fromTaz="47" toTaz="104" departLane="best" departSpeed="max"/>
    <trip id="1308" depart="94.16" from="gneE551" to="gneE434" type="0" fromTaz="104" toTaz="39" departLane="best" departSpeed="max"/>
    <trip id="633" depart="94.44" from="gneE179" to="gneE338" type="0" fromTaz="103" toTaz="34" departLane="best" departSpeed="max"/>
    <trip id="159" depart="94.84" from="gneE543" to="gneE360" type="0" fromTaz="101" toTaz="45" departLane="best" departSpeed="max"/>
    <trip id="3765" depart="95.45" from="gneE290" to="gneE549.67" type="0" fromTaz="21" toTaz="105" departLane="best" departSpeed="max"/>
    <trip id="863" depart="95.90" from="gneE551" to="gneE480" type="0" fromTaz="104" toTaz="20" departLane="best" departSpeed="max"/>
    <trip id="959" depart="96.84" from="gneE551" to="gneE304" type="0" fromTaz="104" toTaz="30" departLane="best" departSpeed="max"/>
    <trip id="2854" depart="97.49" from="gneE577" to="gneE464" type="0" fromTaz="109" toTaz="33" departLane="best" departSpeed="max"/>
    <trip id="5205" depart="97.78" from="gneE313" to="gneE576.71" type="0" fromTaz="39" toTaz="109" departLane="best" departSpeed="max"/>
    <trip id="5207" depart="98.74" from="-gneE398" to="gneE542.128" type="0" fromTaz="4" toTaz="101" departLane="best" departSpeed="max"/>
    <trip id="5326" depart="98.86" from="-gneE431" to="-gneE179.27" type="0" fromTaz="40" toTaz="103" departLane="best" departSpeed="max"/>
    <trip id="3652" depart="98.90" from="gneE164.26" to="gneE582.65" type="0" fromTaz="17" toTaz="108" departLane="best" departSpeed="max"/>
    <trip id="6860" depart="99.04" from="-gneE138" to="gneE542.128" type="0" fromTaz="54" toTaz="101" departLane="best" departSpeed="max"/>
    <trip id="1324" depart="100.27" from="gneE551" to="gneE398" type="0" fromTaz="104" toTaz="4" departLane="best" departSpeed="max"/>
    <trip id="6660" depart="100.65" from="gneE129" to="gneE542.128" type="0" fromTaz="52" toTaz="101" departLane="best" departSpeed="max"/>
    <trip id="3295" depart="100.87" from="-gneE446" to="gneE550.54" type="0" fromTaz="14" toTaz="104" departLane="best" departSpeed="max"/>
    <trip id="4306" depart="100.90" from="-gneE490" to="gneE582.65" type="0" fromTaz="28" toTaz="108" departLane="best" departSpeed="max"/>
    <trip id="201" depart="101.43" from="gneE385" to="-gneE164" type="0" fromTaz="102" toTaz="17" departLane="best" departSpeed="max"/>