<?xml version="1.0" encoding="UTF-8"?>

<!-- generated on 12/07/20 04:43:00 by Eclipse SUMO od2trips Version 1.8.0
<configuration xmlns:xsi="http://www.w3.org/2001/XMLSchema-instance" xsi:noNamespaceSchemaLocation="http://sumo.dlr.de/xsd/od2tripsConfiguration.xsd">

    <input>
        <taz-files value="D:\MEGA\Greenline\Greenline_sumo\greenline_OD\taz.add.xml"/>
        <od-amitran-files value="D:\MEGA\Greenline\Greenline_sumo\greenline_OD\morning40.csv.od.xml"/>
    </input>

    <output>
        <output-file value="D:\MEGA\Greenline\Greenline_sumo\greenline_OD\morning40.trips.xml"/>
    </output>

    <processing>
        <vtype value="10"/>
    </processing>

    <report>
        <verbose value="true"/>
    </report>

</configuration>
-->

<routes xmlns:xsi="http://www.w3.org/2001/XMLSchema-instance" xsi:noNamespaceSchemaLocation="http://sumo.dlr.de/xsd/routes_file.xsd">
    <trip id="137" depart="2.36" from="gneE179" to="gneE257" type="0" fromTaz="103" toTaz="3" departLane="free" departSpeed="max"/>
    <trip id="507" depart="2.75" from="gneE20" to="gneE277" type="0" fromTaz="106" toTaz="15" departLane="free" departSpeed="max"/>
    <trip id="471" depart="4.77" from="gneE240" to="gneE312" type="0" fromTaz="105" toTaz="39" departLane="free" departSpeed="max"/>
    <trip id="283" depart="6.14" from="gneE7" to="gneE298" type="0" fromTaz="104" toTaz="27" departLane="free" departSpeed="max"/>
    <trip id="296" depart="8.55" from="gneE7" to="gneE302" type="0" fromTaz="104" toTaz="29" departLane="free" departSpeed="max"/>
    <trip id="2" depart="9.74" from="gneE56" to="gneE277" type="0" fromTaz="101" toTaz="15" departLane="free" departSpeed="max"/>
    <trip id="143" depart="13.05" from="gneE179" to="gneE306" type="0" fromTaz="103" toTaz="31" departLane="free" departSpeed="max"/>
    <trip id="98" depart="22.71" from="gneE179" to="gneE271" type="0" fromTaz="103" toTaz="12" departLane="free" departSpeed="max"/>
    <trip id="568" depart="24.98" from="gneE20" to="gneE308" type="0" fromTaz="106" toTaz="32" departLane="free" departSpeed="max"/>
    <trip id="284" depart="26.51" from="gneE7" to="gneE300" type="0" fromTaz="104" toTaz="28" departLane="free" departSpeed="max"/>
    <trip id="612" depart="33.54" from="gneE27" to="gneE254" type="0" fromTaz="107" toTaz="1" departLane="free" departSpeed="max"/>
    <trip id="737" depart="36.64" from="-gneE17" to="gneE283" type="0" fromTaz="109" toTaz="18" departLane="free" departSpeed="max"/>
    <trip id="469" depart="37.74" from="gneE240" to="gneE314" type="0" fromTaz="105" toTaz="38" departLane="free" departSpeed="max"/>
    <trip id="697" depart="47.95" from="-gneE64" to="gneE285" type="0" fromTaz="108" toTaz="19" departLane="free" departSpeed="max"/>
    <trip id="267" depart="52.47" from="gneE7" to="gneE294" type="0" fromTaz="104" toTaz="25" departLane="free" departSpeed="max"/>
    <trip id="41" depart="57.85" from="gneE44" to="gneE252" type="0" fromTaz="102" toTaz="22" departLane="free" departSpeed="max"/>
    <trip id="412" depart="58.23" from="gneE7" to="gneE267" type="0" fromTaz="104" toTaz="9" departLane="free" departSpeed="max"/>
    <trip id="689" depart="63.32" from="gneE27" to="gneE265" type="0" fromTaz="107" toTaz="8" departLane="free" departSpeed="max"/>
    <trip id="795" depart="67.30" from="-gneE17" to="gneE265" type="0" fromTaz="109" toTaz="8" departLane="free" departSpeed="max"/>
    <trip id="644" depart="76.05" from="gneE27" to="gneE294" type="0" fromTaz="107" toTaz="25" departLane="free" departSpeed="max"/>
    <trip id="382" depart="77.89" from="gneE7" to="gneE259" type="0" fromTaz="104" toTaz="4" departLane="free" departSpeed="max"/>
    <trip id="743" depart="88.88" from="-gneE17" to="gneE289" type="0" fromTaz="109" toTaz="21" departLane="free" departSpeed="max"/>
    <trip id="624" depart="89.32" from="gneE27" to="gneE275" type="0" fromTaz="107" toTaz="14" departLane="free" departSpeed="max"/>
    <trip id="470" depart="89.91" from="gneE240" to="gneE314" type="0" fromTaz="105" toTaz="38" departLane="free" departSpeed="max"/>
    <trip id="339" depart="90.56" from="gneE7" to="gneE320" type="0" fromTaz="104" toTaz="35" departLane="free" departSpeed="max"/>
    <trip id="444" depart="91.39" from="gneE240" to="gneE296" type="0" fromTaz="105" toTaz="26" departLane="free" departSpeed="max"/>
    <trip id="611" depart="94.44" from="gneE20" to="gneE267" type="0" fromTaz="106" toTaz="9" departLane="free" departSpeed="max"/>
    <trip id="150" depart="94.84" from="gneE179" to="gneE318" type="0" fromTaz="103" toTaz="36" departLane="free" departSpeed="max"/>
    <trip id="195" depart="101.43" from="gneE7" to="gneE273" type="0" fromTaz="104" toTaz="13" departLane="free" departSpeed="max"/>
    <trip id="364" depart="106.94" from="gneE7" to="gneE314" type="0" fromTaz="104" toTaz="38" departLane="free" departSpeed="max"/>
    <trip id="103" depart="107.79" from="gneE179" to="gneE275" type="0" fromTaz="103" toTaz="14" departLane="free" departSpeed="max"/>
    <trip id="333" depart="107.93" from="gneE7" to="gneE338" type="0" fromTaz="104" toTaz="34" departLane="free" departSpeed="max"/>
    <trip id="792" depart="110.09" from="-gneE17" to="gneE291" type="0" fromTaz="109" toTaz="7" departLane="free" departSpeed="max"/>
    <trip id="336" depart="114.89" from="gneE7" to="gneE338" type="0" fromTaz="104" toTaz="34" departLane="free" departSpeed="max"/>
    <trip id="48" depart="121.78" from="gneE44" to="gneE296" type="0" fromTaz="102" toTaz="26" departLane="free" departSpeed="max"/>
    <trip id="378" depart="122.68" from="gneE7" to="gneE259" type="0" fromTaz="104" toTaz="4" departLane="free" departSpeed="max"/>
    <trip id="404" depart="128.34" from="gneE7" to="gneE265" type="0" fromTaz="104" toTaz="8" departLane="free" departSpeed="max"/>
    <trip id="330" depart="130.11" from="gneE7" to="gneE308" type="0" fromTaz="104" toTaz="32" departLane="free" departSpeed="max"/>
    <trip id="167" depart="136.66" from="gneE179" to="gneE291" type="0" fromTaz="103" toTaz="7" departLane="free" departSpeed="max"/>
    <trip id="526" depart="149.02" from="gneE20" to="gneE289" type="0" fromTaz="106" toTaz="21" departLane="free" departSpeed="max"/>
    <trip id="286" depart="150.40" from="gneE7" to="gneE300" type="0" fromTaz="104" toTaz="28" departLane="free" departSpeed="max"/>
    <trip id="30" depart="158.69" from="gneE44" to="gneE281" type="0" fromTaz="102" toTaz="17" departLane="free" departSpeed="max"/>
    <trip id="14" depart="163.02" from="gneE44" to="gneE254" type="0" fromTaz="102" toTaz="1" departLane="free" departSpeed="max"/>
    <trip id="370" depart="171.44" from="gneE7" to="gneE312" type="0" fromTaz="104" toTaz="39" departLane="free" departSpeed="max"/>
    <trip id="298" depart="181.60" from="gneE7" to="gneE302" type="0" fromTaz="104" toTaz="29" departLane="free" departSpeed="max"/>
    <trip id="37" depart="188.13" from="gneE44" to="gneE289" type="0" fromTaz="102" toTaz="21" departLane="free" departSpeed="max"/>
    <trip id="572" depart="202.67" from="gneE20" to="gneE320" type="0" fromTaz="106" toTaz="35" departLane="free" departSpeed="max"/>
    <trip id="56" depart="212.57" from="gneE44" to="gneE257" type="0" fromTaz="102" toTaz="3" departLane="free" departSpeed="max"/>
    <trip id="494" depart="217.98" from="gneE20" to="gneE271" type="0" fromTaz="106" toTaz="12" departLane="free" departSpeed="max"/>
    <trip id="233" depart="222.36" from="gneE7" to="gneE285" type="0" fromTaz="104" toTaz="19" departLane="free" departSpeed="max"/>
    <trip id="240" depart="229.61" from="gneE7" to="gneE289" type="0" fromTaz="104" toTaz="21" departLane="free" departSpeed="max"/>
    <trip id="396" depart="242.93" from="gneE7" to="gneE291" type="0" fromTaz="104" toTaz="7" departLane="free" departSpeed="max"/>
    <trip id="530" depart="245.75" from="gneE20" to="gneE252" type="0" fromTaz="106" toTaz="22" departLane="free" departSpeed="max"/>
    <trip id="422" depart="245.88" from="gneE240" to="gneE275" type="0" fromTaz="105" toTaz="14" departLane="free" departSpeed="max"/>
    <trip id="385" depart="260.97" from="gneE7" to="gneE310" type="0" fromTaz="104" toTaz="40" departLane="free" departSpeed="max"/>
    <trip id="724" depart="263.80" from="-gneE17" to="gneE271" type="0" fromTaz="109" toTaz="12" departLane="free" departSpeed="max"/>
    <trip id="305" depart="265.28" from="gneE7" to="gneE257" type="0" fromTaz="104" toTaz="3" departLane="free" departSpeed="max"/>
    <trip id="597" depart="266.05" from="gneE20" to="gneE310" type="0" fromTaz="106" toTaz="40" departLane="free" departSpeed="max"/>
    <trip id="356" depart="269.15" from="gneE7" to="gneE316" type="0" fromTaz="104" toTaz="37" departLane="free" departSpeed="max"/>
    <trip id="457" depart="272.92" from="gneE240" to="gneE304" type="0" fromTaz="105" toTaz="30" departLane="free" departSpeed="max"/>
    <trip id="761" depart="276.13" from="-gneE17" to="gneE257" type="0" fromTaz="109" toTaz="3" departLane="free" departSpeed="max"/>
    <trip id="323" depart="280.53" from="gneE7" to="gneE306" type="0" fromTaz="104" toTaz="31" departLane="free" departSpeed="max"/>
    <trip id="297" depart="292.32" from="gneE7" to="gneE302" type="0" fromTaz="104" toTaz="29" departLane="free" departSpeed="max"/>
    <trip id="594" depart="302.92" from="gneE20" to="gneE259" type="0" fromTaz="106" toTaz="4" departLane="free" departSpeed="max"/>
    <trip id="543" depart="312.99" from="gneE20" to="gneE296" type="0" fromTaz="106" toTaz="26" departLane="free" departSpeed="max"/>
    <trip id="786" depart="318.37" from="-gneE17" to="gneE259" type="0" fromTaz="109" toTaz="4" departLane="free" departSpeed="max"/>
    <trip id="131" depart="321.07" from="gneE179" to="gneE300" type="0" fromTaz="103" toTaz="28" departLane="free" departSpeed="max"/>
    <trip id="58" depart="325.69" from="gneE44" to="gneE257" type="0" fromTaz="102" toTaz="3" departLane="free" departSpeed="max"/>
    <trip id="310" depart="327.86" from="gneE7" to="gneE257" type="0" fromTaz="104" toTaz="3" departLane="free" departSpeed="max"/>
    <trip id="365" depart="331.23" from="gneE7" to="gneE314" type="0" fromTaz="104" toTaz="38" departLane="free" departSpeed="max"/>
    <trip id="538" depart="335.03" from="gneE20" to="gneE294" type="0" fromTaz="106" toTaz="25" departLane="free" departSpeed="max"/>
    <trip id="190" depart="337.63" from="gneE7" to="gneE271" type="0" fromTaz="104" toTaz="12" departLane="free" departSpeed="max"/>
    <trip id="335" depart="340.73" from="gneE7" to="gneE338" type="0" fromTaz="104" toTaz="34" departLane="free" departSpeed="max"/>
    <trip id="528" depart="340.80" from="gneE20" to="gneE289" type="0" fromTaz="106" toTaz="21" departLane="free" departSpeed="max"/>
    <trip id="509" depart="342.66" from="gneE20" to="gneE277" type="0" fromTaz="106" toTaz="15" departLane="free" departSpeed="max"/>
    <trip id="16" depart="352.32" from="gneE44" to="gneE269" type="0" fromTaz="102" toTaz="10" departLane="free" departSpeed="max"/>
    <trip id="773" depart="362.60" from="-gneE17" to="gneE320" type="0" fromTaz="109" toTaz="35" departLane="free" departSpeed="max"/>
    <trip id="645" depart="374.70" from="gneE27" to="gneE294" type="0" fromTaz="107" toTaz="25" departLane="free" departSpeed="max"/>
    <trip id="438" depart="379.67" from="gneE240" to="gneE252" type="0" fromTaz="105" toTaz="22" departLane="free" departSpeed="max"/>
    <trip id="409" depart="396.42" from="gneE7" to="gneE265" type="0" fromTaz="104" toTaz="8" departLane="free" departSpeed="max"/>
    <trip id="79" depart="397.95" from="gneE44" to="gneE312" type="0" fromTaz="102" toTaz="39" departLane="free" departSpeed="max"/>
    <trip id="134" depart="398.44" from="gneE179" to="gneE302" type="0" fromTaz="103" toTaz="29" departLane="free" departSpeed="max"/>
    <trip id="427" depart="402.43" from="gneE240" to="gneE281" type="0" fromTaz="105" toTaz="17" departLane="free" departSpeed="max"/>
    <trip id="406" depart="409.79" from="gneE7" to="gneE265" type="0" fromTaz="104" toTaz="8" departLane="free" departSpeed="max"/>
    <trip id="34" depart="410.68" from="gneE44" to="gneE285" type="0" fromTaz="102" toTaz="19" departLane="free" departSpeed="max"/>
    <trip id="285" depart="420.68" from="gneE7" to="gneE300" type="0" fromTaz="104" toTaz="28" departLane="free" departSpeed="max"/>
    <trip id="268" depart="422.38" from="gneE7" to="gneE294" type="0" fromTaz="104" toTaz="25" departLane="free" departSpeed="max"/>
    <trip id="241" depart="422.96" from="gneE7" to="gneE289" type="0" fromTaz="104" toTaz="21" departLane="free" departSpeed="max"/>
    <trip id="26" depart="423.68" from="gneE44" to="gneE277" type="0" fromTaz="102" toTaz="15" departLane="free" departSpeed="max"/>
    <trip id="400" depart="425.10" from="gneE7" to="gneE291" type="0" fromTaz="104" toTaz="7" departLane="free" departSpeed="max"/>
    <trip id="145" depart="426.92" from="gneE179" to="gneE308" type="0" fromTaz="103" toTaz="32" departLane="free" departSpeed="max"/>
    <trip id="571" depart="434.39" from="gneE20" to="gneE338" type="0" fromTaz="106" toTaz="34" departLane="free" departSpeed="max"/>
    <trip id="20" depart="436.43" from="gneE44" to="gneE271" type="0" fromTaz="102" toTaz="12" departLane="free" departSpeed="max"/>
    <trip id="782" depart="439.02" from="-gneE17" to="gneE314" type="0" fromTaz="109" toTaz="38" departLane="free" departSpeed="max"/>
    <trip id="55" depart="447.19" from="gneE44" to="gneE302" type="0" fromTaz="102" toTaz="29" departLane="free" departSpeed="max"/>
    <trip id="38" depart="448.25" from="gneE44" to="gneE289" type="0" fromTaz="102" toTaz="21" departLane="free" departSpeed="max"/>
    <trip id="389" depart="452.31" from="gneE7" to="gneE261" type="0" fromTaz="104" toTaz="5" departLane="free" departSpeed="max"/>
    <trip id="407" depart="456.61" from="gneE7" to="gneE265" type="0" fromTaz="104" toTaz="8" departLane="free" departSpeed="max"/>
    <trip id="164" depart="462.52" from="gneE179" to="gneE261" type="0" fromTaz="103" toTaz="5" departLane="free" departSpeed="max"/>
    <trip id="574" depart="469.46" from="gneE20" to="gneE320" type="0" fromTaz="106" toTaz="35" departLane="free" departSpeed="max"/>
    <trip id="638" depart="471.75" from="gneE27" to="gneE289" type="0" fromTaz="107" toTaz="21" departLane="free" departSpeed="max"/>
    <trip id="531" depart="475.74" from="gneE20" to="gneE252" type="0" fromTaz="106" toTaz="22" departLane="free" departSpeed="max"/>
    <trip id="393" depart="476.56" from="gneE7" to="gneE261" type="0" fromTaz="104" toTaz="5" departLane="free" departSpeed="max"/>
    <trip id="318" depart="477.14" from="gneE7" to="gneE304" type="0" fromTaz="104" toTaz="30" departLane="free" departSpeed="max"/>
    <trip id="170" depart="478.93" from="gneE179" to="gneE265" type="0" fromTaz="103" toTaz="8" departLane="free" departSpeed="max"/>
    <trip id="338" depart="479.31" from="gneE7" to="gneE320" type="0" fromTaz="104" toTaz="35" departLane="free" departSpeed="max"/>
    <trip id="537" depart="482.04" from="gneE20" to="gneE294" type="0" fromTaz="106" toTaz="25" departLane="free" departSpeed="max"/>
    <trip id="498" depart="482.68" from="gneE20" to="gneE273" type="0" fromTaz="106" toTaz="13" departLane="free" departSpeed="max"/>
    <trip id="491" depart="484.62" from="gneE20" to="gneE271" type="0" fromTaz="106" toTaz="12" departLane="free" departSpeed="max"/>
    <trip id="598" depart="489.60" from="gneE20" to="gneE261" type="0" fromTaz="106" toTaz="5" departLane="free" departSpeed="max"/>
    <trip id="556" depart="498.41" from="gneE20" to="gneE257" type="0" fromTaz="106" toTaz="3" departLane="free" departSpeed="max"/>
    <trip id="706" depart="505.14" from="-gneE64" to="gneE304" type="0" fromTaz="108" toTaz="30" departLane="free" departSpeed="max"/>
    <trip id="411" depart="506.44" from="gneE7" to="gneE267" type="0" fromTaz="104" toTaz="9" departLane="free" departSpeed="max"/>
    <trip id="649" depart="510.67" from="gneE27" to="gneE298" type="0" fromTaz="107" toTaz="27" departLane="free" departSpeed="max"/>
    <trip id="693" depart="518.26" from="-gneE64" to="gneE273" type="0" fromTaz="108" toTaz="13" departLane="free" departSpeed="max"/>
    <trip id="659" depart="523.24" from="gneE27" to="gneE257" type="0" fromTaz="107" toTaz="3" departLane="free" departSpeed="max"/>
    <trip id="517" depart="527.29" from="gneE20" to="gneE283" type="0" fromTaz="106" toTaz="18" departLane="free" departSpeed="max"/>
    <trip id="738" depart="532.28" from="-gneE17" to="gneE285" type="0" fromTaz="109" toTaz="19" departLane="free" departSpeed="max"/>
    <trip id="675" depart="533.42" from="gneE27" to="gneE314" type="0" fromTaz="107" toTaz="38" departLane="free" departSpeed="max"/>
    <trip id="213" depart="541.29" from="gneE7" to="gneE277" type="0" fromTaz="104" toTaz="15" departLane="free" departSpeed="max"/>
    <trip id="367" depart="546.44" from="gneE7" to="gneE312" type="0" fromTaz="104" toTaz="39" departLane="free" departSpeed="max"/>
    <trip id="699" depart="558.56" from="-gneE64" to="gneE252" type="0" fromTaz="108" toTaz="22" departLane="free" departSpeed="max"/>
    <trip id="488" depart="558.67" from="gneE20" to="gneE269" type="0" fromTaz="106" toTaz="10" departLane="free" departSpeed="max"/>
    <trip id="656" depart="559.93" from="gneE27" to="gneE257" type="0" fromTaz="107" toTaz="3" departLane="free" departSpeed="max"/>
    <trip id="229" depart="561.79" from="gneE7" to="gneE283" type="0" fromTaz="104" toTaz="18" departLane="free" departSpeed="max"/>
    <trip id="222" depart="561.95" from="gneE7" to="gneE281" type="0" fromTaz="104" toTaz="17" departLane="free" departSpeed="max"/>
    <trip id="765" depart="567.36" from="-gneE17" to="gneE257" type="0" fromTaz="109" toTaz="3" departLane="free" departSpeed="max"/>
    <trip id="129" depart="568.32" from="gneE179" to="gneE296" type="0" fromTaz="103" toTaz="26" departLane="free" departSpeed="max"/>
    <trip id="637" depart="568.51" from="gneE27" to="gneE289" type="0" fromTaz="107" toTaz="21" departLane="free" departSpeed="max"/>
    <trip id="102" depart="572.23" from="gneE179" to="gneE273" type="0" fromTaz="103" toTaz="13" departLane="free" departSpeed="max"/>
    <trip id="573" depart="585.67" from="gneE20" to="gneE320" type="0" fromTaz="106" toTaz="35" departLane="free" departSpeed="max"/>
    <trip id="541" depart="585.67" from="gneE20" to="gneE296" type="0" fromTaz="106" toTaz="26" departLane="free" departSpeed="max"/>
    <trip id="50" depart="587.91" from="gneE44" to="gneE298" type="0" fromTaz="102" toTaz="27" departLane="free" departSpeed="max"/>
    <trip id="576" depart="591.35" from="gneE20" to="gneE318" type="0" fromTaz="106" toTaz="36" departLane="free" departSpeed="max"/>
    <trip id="42" depart="597.95" from="gneE44" to="gneE252" type="0" fromTaz="102" toTaz="22" departLane="free" departSpeed="max"/>
    <trip id="152" depart="604.53" from="gneE179" to="gneE318" type="0" fromTaz="103" toTaz="36" departLane="free" departSpeed="max"/>
    <trip id="243" depart="609.79" from="gneE7" to="gneE289" type="0" fromTaz="104" toTaz="21" departLane="free" departSpeed="max"/>
    <trip id="357" depart="611.41" from="gneE7" to="gneE316" type="0" fromTaz="104" toTaz="37" departLane="free" departSpeed="max"/>
    <trip id="448" depart="624.75" from="gneE240" to="gneE300" type="0" fromTaz="105" toTaz="28" departLane="free" departSpeed="max"/>
    <trip id="691" depart="639.44" from="gneE27" to="gneE267" type="0" fromTaz="107" toTaz="9" departLane="free" departSpeed="max"/>
    <trip id="235" depart="640.55" from="gneE7" to="gneE285" type="0" fromTaz="104" toTaz="19" departLane="free" departSpeed="max"/>
    <trip id="516" depart="647.45" from="gneE20" to="gneE283" type="0" fromTaz="106" toTaz="18" departLane="free" departSpeed="max"/>
    <trip id="502" depart="651.39" from="gneE20" to="gneE275" type="0" fromTaz="106" toTaz="14" departLane="free" departSpeed="max"/>
    <trip id="110" depart="652.54" from="gneE179" to="gneE281" type="0" fromTaz="103" toTaz="17" departLane="free" departSpeed="max"/>
    <trip id="609" depart="660.40" from="gneE20" to="gneE265" type="0" fromTaz="106" toTaz="8" departLane="free" departSpeed="max"/>
    <trip id="265" depart="663.46" from="gneE7" to="gneE330" type="0" fromTaz="104" toTaz="24" departLane="free" departSpeed="max"/>
    <trip id="246" depart="666.97" from="gneE7" to="gneE289" type="0" fromTaz="104" toTaz="21" departLane="free" departSpeed="max"/>
    <trip id="218" depart="667.41" from="gneE7" to="gneE277" type="0" fromTaz="104" toTaz="15" departLane="free" departSpeed="max"/>
    <trip id="70" depart="669.55" from="gneE44" to="gneE318" type="0" fromTaz="102" toTaz="36" departLane="free" departSpeed="max"/>
    <trip id="696" depart="673.03" from="-gneE64" to="gneE283" type="0" fromTaz="108" toTaz="18" departLane="free" departSpeed="max"/>
    <trip id="767" depart="674.10" from="-gneE17" to="gneE304" type="0" fromTaz="109" toTaz="30" departLane="free" departSpeed="max"/>
    <trip id="11" depart="674.42" from="gneE56" to="gneE261" type="0" fromTaz="101" toTaz="5" departLane="free" departSpeed="max"/>
    <trip id="599" depart="674.64" from="gneE20" to="gneE261" type="0" fromTaz="106" toTaz="5" departLane="free" departSpeed="max"/>
    <trip id="148" depart="676.92" from="gneE179" to="gneE320" type="0" fromTaz="103" toTaz="35" departLane="free" departSpeed="max"/>
    <trip id="431" depart="687.79" from="gneE240" to="gneE285" type="0" fromTaz="105" toTaz="19" departLane="free" departSpeed="max"/>
    <trip id="660" depart="688.12" from="gneE27" to="gneE304" type="0" fromTaz="107" toTaz="30" departLane="free" departSpeed="max"/>
    <trip id="211" depart="689.37" from="gneE7" to="gneE277" type="0" fromTaz="104" toTaz="15" departLane="free" departSpeed="max"/>
    <trip id="202" depart="693.28" from="gneE7" to="gneE275" type="0" fromTaz="104" toTaz="14" departLane="free" departSpeed="max"/>
    <trip id="29" depart="696.11" from="gneE44" to="gneE279" type="0" fromTaz="102" toTaz="16" departLane="free" departSpeed="max"/>
    <trip id="417" depart="698.32" from="gneE240" to="gneE271" type="0" fromTaz="105" toTaz="12" departLane="free" departSpeed="max"/>
    <trip id="635" depart="714.00" from="gneE27" to="gneE289" type="0" fromTaz="107" toTaz="21" departLane="free" departSpeed="max"/>
    <trip id="788" depart="715.73" from="-gneE17" to="gneE310" type="0" fromTaz="109" toTaz="40" departLane="free" departSpeed="max"/>
    <trip id="642" depart="718.41" from="gneE27" to="gneE330" type="0" fromTaz="107" toTaz="24" departLane="free" departSpeed="max"/>
    <trip id="745" depart="719.06" from="-gneE17" to="gneE252" type="0" fromTaz="109" toTaz="22" departLane="free" departSpeed="max"/>
    <trip id="392" depart="726.20" from="gneE7" to="gneE261" type="0" fromTaz="104" toTaz="5" departLane="free" departSpeed="max"/>
    <trip id="180" depart="735.71" from="gneE7" to="gneE269" type="0" fromTaz="104" toTaz="10" departLane="free" departSpeed="max"/>
    <trip id="562" depart="738.01" from="gneE20" to="gneE304" type="0" fromTaz="106" toTaz="30" departLane="free" departSpeed="max"/>
    <trip id="546" depart="740.89" from="gneE20" to="gneE300" type="0" fromTaz="106" toTaz="28" departLane="free" departSpeed="max"/>
    <trip id="449" depart="744.46" from="gneE240" to="gneE300" type="0" fromTaz="105" toTaz="28" departLane="free" departSpeed="max"/>
    <trip id="561" depart="757.05" from="gneE20" to="gneE304" type="0" fromTaz="106" toTaz="30" departLane="free" departSpeed="max"/>
    <trip id="127" depart="759.36" from="gneE179" to="gneE294" type="0" fromTaz="103" toTaz="25" departLane="free" departSpeed="max"/>
    <trip id="293" depart="763.08" from="gneE7" to="gneE300" type="0" fromTaz="104" toTaz="28" departLane="free" departSpeed="max"/>
    <trip id="108" depart="767.89" from="gneE179" to="gneE277" type="0" fromTaz="103" toTaz="15" departLane="free" departSpeed="max"/>
    <trip id="496" depart="768.65" from="gneE20" to="gneE271" type="0" fromTaz="106" toTaz="12" departLane="free" departSpeed="max"/>
    <trip id="580" depart="769.26" from="gneE20" to="gneE316" type="0" fromTaz="106" toTaz="37" departLane="free" departSpeed="max"/>
    <trip id="477" depart="783.42" from="gneE240" to="gneE261" type="0" fromTaz="105" toTaz="5" departLane="free" departSpeed="max"/>
    <trip id="141" depart="784.00" from="gneE179" to="gneE304" type="0" fromTaz="103" toTaz="30" departLane="free" departSpeed="max"/>
    <trip id="555" depart="784.13" from="gneE20" to="gneE257" type="0" fromTaz="106" toTaz="3" departLane="free" departSpeed="max"/>
    <trip id="21" depart="785.27" from="gneE44" to="gneE273" type="0" fromTaz="102" toTaz="13" departLane="free" departSpeed="max"/>
    <trip id="89" depart="787.08" from="gneE44" to="gneE265" type="0" fromTaz="102" toTaz="8" departLane="free" departSpeed="max"/>
    <trip id="564" depart="788.05" from="gneE20" to="gneE306" type="0" fromTaz="106" toTaz="31" departLane="free" departSpeed="max"/>
    <trip id="588" depart="789.97" from="gneE20" to="gneE312" type="0" fromTaz="106" toTaz="39" departLane="free" departSpeed="max"/>
    <trip id="437" depart="799.53" from="gneE240" to="gneE252" type="0" fromTaz="105" toTaz="22" departLane="free" departSpeed="max"/>
    <trip id="535" depart="801.11" from="gneE20" to="gneE330" type="0" fromTaz="106" toTaz="24" departLane="free" departSpeed="max"/>
    <trip id="135" depart="809.38" from="gneE179" to="gneE302" type="0" fromTaz="103" toTaz="29" departLane="free" departSpeed="max"/>
    <trip id="725" depart="811.12" from="-gneE17" to="gneE271" type="0" fromTaz="109" toTaz="12" departLane="free" departSpeed="max"/>
    <trip id="215" depart="812.31" from="gneE7" to="gneE277" type="0" fromTaz="104" toTaz="15" departLane="free" departSpeed="max"/>
    <trip id="300" depart="825.84" from="gneE7" to="gneE257" type="0" fromTaz="104" toTaz="3" departLane="free" departSpeed="max"/>
    <trip id="721" depart="831.48" from="-gneE17" to="gneE269" type="0" fromTaz="109" toTaz="10" departLane="free" departSpeed="max"/>
    <trip id="115" depart="836.65" from="gneE179" to="gneE287" type="0" fromTaz="103" toTaz="20" departLane="free" departSpeed="max"/>
    <trip id="245" depart="838.12" from="gneE7" to="gneE289" type="0" fromTaz="104" toTaz="21" departLane="free" departSpeed="max"/>
    <trip id="430" depart="840.96" from="gneE240" to="gneE285" type="0" fromTaz="105" toTaz="19" departLane="free" departSpeed="max"/>
    <trip id="18" depart="842.52" from="gneE44" to="gneE271" type="0" fromTaz="102" toTaz="12" departLane="free" departSpeed="max"/>
    <trip id="183" depart="852.86" from="gneE7" to="gneE271" type="0" fromTaz="104" toTaz="12" departLane="free" departSpeed="max"/>
    <trip id="551" depart="863.89" from="gneE20" to="gneE302" type="0" fromTaz="106" toTaz="29" departLane="free" departSpeed="max"/>
    <trip id="415" depart="869.67" from="gneE240" to="gneE271" type="0" fromTaz="105" toTaz="12" departLane="free" departSpeed="max"/>
    <trip id="347" depart="870.97" from="gneE7" to="gneE318" type="0" fromTaz="104" toTaz="36" departLane="free" departSpeed="max"/>
    <trip id="735" depart="872.54" from="-gneE17" to="gneE281" type="0" fromTaz="109" toTaz="17" departLane="free" departSpeed="max"/>
    <trip id="113" depart="873.05" from="gneE179" to="gneE285" type="0" fromTaz="103" toTaz="19" departLane="free" departSpeed="max"/>
    <trip id="775" depart="875.70" from="-gneE17" to="gneE318" type="0" fromTaz="109" toTaz="36" departLane="free" departSpeed="max"/>
    <trip id="151" depart="876.21" from="gneE179" to="gneE318" type="0" fromTaz="103" toTaz="36" departLane="free" departSpeed="max"/>
    <trip id="666" depart="888.82" from="gneE27" to="gneE338" type="0" fromTaz="107" toTaz="34" departLane="free" departSpeed="max"/>
    <trip id="589" depart="906.75" from="gneE20" to="gneE312" type="0" fromTaz="106" toTaz="39" departLane="free" departSpeed="max"/>
    <trip id="9" depart="912.02" from="gneE56" to="gneE316" type="0" fromTaz="101" toTaz="37" departLane="free" departSpeed="max"/>
    <trip id="132" depart="913.45" from="gneE179" to="gneE300" type="0" fromTaz="103" toTaz="28" departLane="free" departSpeed="max"/>
    <trip id="147" depart="913.53" from="gneE179" to="gneE338" type="0" fromTaz="103" toTaz="34" departLane="free" departSpeed="max"/>
    <trip id="421" depart="917.27" from="gneE240" to="gneE275" type="0" fromTaz="105" toTaz="14" departLane="free" departSpeed="max"/>
    <trip id="32" depart="927.91" from="gneE44" to="gneE283" type="0" fromTaz="102" toTaz="18" departLane="free" departSpeed="max"/>
    <trip id="447" depart="928.89" from="gneE240" to="gneE300" type="0" fromTaz="105" toTaz="28" departLane="free" departSpeed="max"/>
    <trip id="685" depart="937.19" from="gneE27" to="gneE261" type="0" fromTaz="107" toTaz="5" departLane="free" departSpeed="max"/>
    <trip id="186" depart="937.38" from="gneE7" to="gneE271" type="0" fromTaz="104" toTaz="12" departLane="free" departSpeed="max"/>
    <trip id="484" depart="946.31" from="gneE240" to="gneE265" type="0" fromTaz="105" toTaz="8" departLane="free" departSpeed="max"/>
    <trip id="398" depart="948.57" from="gneE7" to="gneE291" type="0" fromTaz="104" toTaz="7" departLane="free" departSpeed="max"/>
    <trip id="614" depart="949.16" from="gneE27" to="gneE269" type="0" fromTaz="107" toTaz="10" departLane="free" departSpeed="max"/>
    <trip id="481" depart="952.12" from="gneE240" to="gneE291" type="0" fromTaz="105" toTaz="7" departLane="free" departSpeed="max"/>
    <trip id="527" depart="953.25" from="gneE20" to="gneE289" type="0" fromTaz="106" toTaz="21" departLane="free" departSpeed="max"/>
    <trip id="72" depart="957.25" from="gneE44" to="gneE318" type="0" fromTaz="102" toTaz="36" departLane="free" departSpeed="max"/>
    <trip id="500" depart="965.68" from="gneE20" to="gneE273" type="0" fromTaz="106" toTaz="13" departLane="free" departSpeed="max"/>