<?xml version="1.0" encoding="UTF-8"?>
<!-- generated on 12/13/20 23:02:32 by Eclipse SUMO netedit Version 1.8.0
<configuration
xmlns:xsi="http://www.w3.org/2001/XMLSchema-instance" xsi:noNamespaceSchemaLocation="http://sumo.dlr.de/xsd/netconvertConfiguration.xsd"><input><sumo-net-file value="D:\MEGA\Greenline\Greenline_sumo\greenline_OD\greenline.net.xml"/></input><output><output-file value="D:\MEGA\Greenline\Greenline_sumo\greenline_OD\greenline.net.xml"/></output><processing><geometry.min-radius.fix.railways value="false"/><geometry.max-grade.fix value="false"/><offset.disable-normalization value="true"/><lefthand value="false"/></processing><junctions><no-turnarounds value="true"/><junctions.corner-detail value="5"/><junctions.limit-turn-speed value="5.5"/><rectangular-lane-cut value="false"/></junctions><pedestrian><walkingareas value="false"/></pedestrian><netedit><route-files value="D:\MEGA\Greenline\Greenline_sumo\greenline_OD\morning.vehicles.rou.xml"/></netedit><report><aggregate-warnings value="5"/></report></configuration>
-->
<routes
    xmlns:xsi="http://www.w3.org/2001/XMLSchema-instance" xsi:noNamespaceSchemaLocation="http://sumo.dlr.de/xsd/routes_file.xsd">
    <vType id="passenger" length="4.30" minGap="2.00" maxSpeed="33.00" probability="0.49" guiShape="passenger/sedan" color="red" jmCrossingGap="15" carFollowModel="IDM" accel="2.6" decel="7.8" tau="1"/>
    <flow id="104-102" type="passenger" begin="0.00" departLane="best" end="3600.00" vehsPerHour="65.00">
        <route edges="gneE551 gneE561 gneE547.80 gneE408.4 gneE408.444 gneE408.482 gneE408.653 gneE408.722 gneE409 gneE409.56 gneE409.87 gneE409.184 gneE409.250 gneE409.250.460" color="cyan"/>
    </flow>
    <flow id="104-105" type="passenger" begin="0.00" departLane="best" end="3600.00" vehsPerHour="168.00">
        <route edges="gneE551 gneE551.161 gneE549 gneE549.67" color="cyan"/>
    </flow>
    <flow id="104-108" type="passenger" begin="0.00" departLane="best" end="3600.00" vehsPerHour="100.00">
        <route edges="gneE551 gneE551.161 gneE555 gneE556 gneE564 gneE566 gneE575 gneE573 gneE582 gneE582.65" color="cyan"/>
    </flow>
    <flow id="104-101" type="passenger" begin="0.00" departLane="best" end="3600.00" vehsPerHour="70.00">
        <route edges="gneE575 gneE583 gneE531.131 gneE531.49 gneE532 gneE380 gneE380.70 gneE380.125 gneE380.211 gneE380.987 gneE542 gneE542.128" color="cyan"/>
    </flow>
    <flow id="105-102" type="passenger" begin="0.00" departLane="best" end="3600.00" vehsPerHour="659.98">
        <route edges="-gneE549 -gneE549.234 gneE547 gneE547.80 gneE408.4 gneE408.444 gneE408.482 gneE408.653 gneE408.722 gneE409 gneE409.56 gneE409.87 gneE409.184 gneE409.250 gneE409.250.460" color="cyan"/>
    </flow>
    <flow id="105-103" type="passenger" begin="0.00" departLane="best" end="3600.00" vehsPerHour="144.00">
        <route edges="-gneE549 -gneE549.234 gneE547 gneE547.80 gneE408.4 gneE408.444 gneE408.482 gneE408.653 gneE408.722 -gneE179 -gneE179.27" color="cyan"/>
    </flow>
    <flow id="105-104" type="passenger" begin="0.00" departLane="best" end="3600.00" vehsPerHour="358.98">
        <route edges="-gneE549 gneE552 gneE550.54" color="cyan"/>
    </flow>
    <flow id="105-109" type="passenger" begin="0.00" departLane="best" end="3600.00" vehsPerHour="241.01">
        <route edges="-gneE549 -gneE549.234 gneE555 gneE556 gneE564 gneE566 gneE575 gneE573 gneE576 gneE576.71" color="cyan"/>
    </flow>
    <flow id="104-109" type="passenger" begin="0.00" departLane="best" end="3600.00" vehsPerHour="700.00">
        <route edges="gneE551 gneE551.161 gneE555 gneE556 gneE564 gneE566 gneE575 gneE573 gneE576 gneE576.71" color="cyan"/>
    </flow>
    <flow id="106-104" type="passenger" begin="0.00" departLane="best" end="3600.00" vehsPerHour="100.00">
        <route edges="-gneE567 gneE553 gneE554 gneE550 gneE550.54" color="cyan"/>
    </flow>
    <flow id="106-109" type="passenger" begin="0.00" departLane="best" end="3600.00" vehsPerHour="48.00">
        <route edges="-gneE567 gneE564 gneE566 gneE575 gneE573 gneE576 gneE576.71" color="cyan"/>
    </flow>
    <flow id="107-104" type="passenger" begin="0.00" departLane="best" end="3600.00" vehsPerHour="100.00">
        <route edges="gneE571 gneE569 gneE563 gneE565 gneE565.156 gneE553 gneE554 gneE550 gneE550.54" color="cyan"/>
    </flow>
    <flow id="107-109" type="passenger" begin="0.00" departLane="best" end="3600.00" vehsPerHour="48.00">
        <route edges="gneE571 gneE569 gneE575 gneE573 gneE576 gneE576.71" color="cyan"/>
    </flow>
    <flow id="108-101" type="passenger" begin="0.00" departLane="best" end="3600.00" vehsPerHour="650.99">
        <route edges="gneE581 gneE581.157 gneE531.3 gneE531.131 gneE531.49 gneE532 gneE380 gneE380.70 gneE380.125 gneE380.211 gneE380.987 gneE542 gneE542.128" color="cyan"/>
    </flow>
    <flow id="108-104" type="passenger" begin="0.00" departLane="best" end="3600.00" vehsPerHour="300.02">
        <route edges="gneE581 gneE586 gneE572 gneE563 gneE565 gneE565.156 gneE553 gneE554 gneE550 gneE550.54" color="cyan"/>
    </flow>
    <flow id="108-109" type="passenger" begin="0.00" departLane="best" end="3600.00" vehsPerHour="24.00">
        <route edges="gneE581 gneE581.157 gneE531.3 gneE531.131 -gneE534 gneE69.98 gneE69.171 gneE70 -gneE28 gneE575 gneE573 gneE576 gneE576.71" color="cyan"/>
    </flow>
    <flow id="109-101" type="passenger" begin="0.00" departLane="best" end="3600.00" vehsPerHour="980.00">
        <route edges="gneE577 gneE578 gneE578.42 gneE531.3 gneE531.131 gneE531.49 gneE532 gneE380 gneE380.70 gneE380.125 gneE380.211 gneE380.987 gneE542 gneE542.128" color="cyan"/>
    </flow>
    <flow id="109-104" type="passenger" begin="0.00" departLane="best" end="3600.00" vehsPerHour="679.98">
        <route edges="gneE577 gneE578 gneE578.42 gneE574 gneE572 gneE563 gneE565 gneE565.156 gneE553 gneE554 gneE550 gneE550.54" color="cyan"/>
    </flow>
    <flow id="109-102" type="passenger" begin="0.00" departLane="best" end="3600.00" vehsPerHour="580.00">
        <route edges="gneE577 gneE578 gneE578.42 gneE574 gneE572 gneE563 gneE565 gneE565.156 gneE553 gneE554 gneE547 gneE547.80 gneE408.4 gneE408.444 gneE408.482 gneE408.653 gneE408.722 gneE409 gneE409.56 gneE409.87 gneE409.184 gneE409.250 gneE409.250.460" color="cyan"/>
    </flow>
    <flow id="109-108" type="passenger" begin="0.00" departLane="best" end="3600.00" vehsPerHour="177.00">
        <route edges="gneE577 gneE578 gneE585 gneE582.65" color="cyan"/>
    </flow>
    <flow id="102-103" type="passenger" begin="0.00" departLane="best" end="3600.00" vehsPerHour="158.00">
        <route edges="gneE385 gneE385.126 gneE385.441 gneE385.600 gneE385.600.137 -gneE179 -gneE179.27" color="cyan"/>
    </flow>
    <flow id="102-105" type="passenger" begin="0.00" departLane="best" end="3600.00" vehsPerHour="420.00">
        <route edges="gneE385 gneE385.126 gneE385.441 gneE385.600 gneE385.600.137 gneE386 gneE386.42 gneE386.104 gneE386.243 gneE403 gneE403.61 gneE548 gneE548.96 gneE548.141 gneE549 gneE549.67" color="cyan"/>
    </flow>
    <flow id="102-106" type="passenger" begin="0.00" departLane="best" end="3600.00" vehsPerHour="70.00">
        <route edges="gneE385 gneE385.126 gneE385.441 gneE385.600 gneE385.600.137 gneE386 gneE386.42 gneE386.104 gneE386.243 gneE403 gneE403.61 gneE548 gneE560 gneE556 gneE567 gneE567.74" color="cyan"/>
    </flow>
    <flow id="102-107" type="passenger" begin="0.00" departLane="best" end="3600.00" vehsPerHour="20.00">
        <route edges="gneE385 gneE385.126 gneE385.441 gneE385.600 gneE385.600.137 gneE386 gneE386.42 gneE386.104 gneE386.243 gneE403 gneE403.61 gneE548 gneE560 gneE556 gneE564 gneE566 gneE570" color="cyan"/>
    </flow>
    <flow id="103-102" type="passenger" begin="0.00" departLane="best" end="3600.00" vehsPerHour="73.00">
        <route edges="gneE179 gneE179.220 gneE409 gneE409.56 gneE409.87 gneE409.184 gneE409.250 gneE409.250.460" color="cyan"/>
    </flow>
    <flow id="103-105" type="passenger" begin="0.00" departLane="best" end="3600.00" vehsPerHour="140.00">
        <route edges="gneE179 gneE179.220 gneE386 gneE386.42 gneE386.104 gneE386.243 gneE403 gneE403.61 gneE548 gneE548.96 gneE548.141 gneE549 gneE549.67" color="cyan"/>
    </flow>
    <flow id="103-107" type="passenger" begin="0.00" departLane="best" end="3600.00" vehsPerHour="180.00">
        <route edges="gneE179 gneE179.220 gneE386 gneE386.42 gneE386.104 gneE386.243 gneE403 gneE403.61 gneE548 gneE560 gneE556 gneE564 gneE566 gneE570" color="cyan"/>
    </flow>
    <flow id="101-108" type="passenger" begin="0.00" departLane="best" end="3600.00" vehsPerHour="960.00">
        <route edges="gneE543 gneE543.103 gneE543.188 gneE543.225 gneE543.286 gneE372.156 gneE372.265 gneE372.352 gneE372.432 gneE372.836 gneE372.941 gneE533 gneE533.45 gneE533.106 gneE533.144 gneE533.385 gneE533.483 gneE582 gneE582.65" color="cyan"/>
    </flow>
    <flow id="101-109" type="passenger" begin="0.00" departLane="best" end="3600.00" vehsPerHour="483.03">
        <route edges="gneE543 gneE543.103 gneE543.188 gneE543.225 gneE543.286 gneE372.156 gneE372.265 gneE372.352 gneE372.432 gneE372.836 gneE372.941 gneE533 gneE533.45 gneE533.106 gneE533.144 gneE533.385 gneE584 gneE576.71" color="cyan"/>
    </flow>
</routes>
