<?xml version="1.0" encoding="UTF-8"?>
<!-- generated on 12/13/20 23:02:32 by Eclipse SUMO netedit Version 1.8.0
<configuration
xmlns:xsi="http://www.w3.org/2001/XMLSchema-instance" xsi:noNamespaceSchemaLocation="http://sumo.dlr.de/xsd/netconvertConfiguration.xsd"><input><sumo-net-file value="D:\MEGA\Greenline\Greenline_sumo\greenline_OD\greenline.net.xml"/></input><output><output-file value="D:\MEGA\Greenline\Greenline_sumo\greenline_OD\greenline.net.xml"/></output><processing><geometry.min-radius.fix.railways value="false"/><geometry.max-grade.fix value="false"/><offset.disable-normalization value="true"/><lefthand value="false"/></processing><junctions><no-turnarounds value="true"/><junctions.corner-detail value="5"/><junctions.limit-turn-speed value="5.5"/><rectangular-lane-cut value="false"/></junctions><pedestrian><walkingareas value="false"/></pedestrian><netedit><route-files value="D:\MEGA\Greenline\Greenline_sumo\greenline_OD\morning.vehicles.rou.xml"/></netedit><report><aggregate-warnings value="5"/></report></configuration>
-->
<routes
    xmlns:xsi="http://www.w3.org/2001/XMLSchema-instance" xsi:noNamespaceSchemaLocation="http://sumo.dlr.de/xsd/routes_file.xsd">
    <vType id="passenger" length="4.30" minGap="2.00" maxSpeed="33.00" probability="0.49" guiShape="passenger/sedan" color="red" jmCrossingGap="15" carFollowModel="IDM" accel="2.6" decel="7.8" tau="1"/>
    <flow id="1.2_1-7.3_1" type="passenger" begin="0.00" departLane="best" end="3600.00" vehsPerHour="65.00">
        <route edges="gneE551 gneE561 gneE547.80 gneE408.4 gneE408.444 gneE408.482 gneE408.653 gneE408.722 gneE409 gneE409.56 gneE409.87 gneE409.184 gneE409.250 gneE409.250.460" color="cyan"/>
    </flow>
    <flow id="1.2_3" type="passenger" begin="0.00" departLane="best" end="3600.00" vehsPerHour="268.00">
        <route edges="gneE551 gneE551.161 gneE549 gneE549.67" color="cyan"/>
    </flow>
    <flow id="1.2_4-4.2_3" type="passenger" begin="0.00" departLane="best" end="3600.00" vehsPerHour="200.00">
        <route edges="gneE551 gneE551.161 gneE555 gneE556 gneE564 gneE566 gneE575 gneE573 gneE582 gneE582.65" color="cyan"/>
    </flow>
    <flow id="1.2_4-8.3_1" type="passenger" begin="0.00" departLane="best" end="3600.00" vehsPerHour="170.00">
        <route edges="gneE575 gneE583 gneE531.131 gneE531.49 gneE532 gneE380 gneE380.70 gneE380.125 gneE380.211 gneE380.987 gneE542 gneE542.128" color="cyan"/>
    </flow>
    <flow id="1.3_1-7.3_1" type="passenger" begin="0.00" departLane="best" end="3600.00" vehsPerHour="699.98">
        <route edges="-gneE549 -gneE549.234 gneE547 gneE547.80 gneE408.4 gneE408.444 gneE408.482 gneE408.653 gneE408.722 gneE409 gneE409.56 gneE409.87 gneE409.184 gneE409.250 gneE409.250.460" color="cyan"/>
    </flow>
    <flow id="1.3_1-7.3_2" type="passenger" begin="0.00" departLane="best" end="3600.00" vehsPerHour="184.00">
        <route edges="-gneE549 -gneE549.234 gneE547 gneE547.80 gneE408.4 gneE408.444 gneE408.482 gneE408.653 gneE408.722 -gneE179 -gneE179.27" color="cyan"/>
    </flow>
    <flow id="1.3_2" type="passenger" begin="0.00" departLane="best" end="3600.00" vehsPerHour="398.98">
        <route edges="-gneE549 gneE552 gneE550.54" color="cyan"/>
    </flow>
    <flow id="1.3_4-4.2_4" type="passenger" begin="0.00" departLane="best" end="3600.00" vehsPerHour="281.01">
        <route edges="-gneE549 -gneE549.234 gneE555 gneE556 gneE564 gneE566 gneE575 gneE573 gneE576 gneE576.71" color="cyan"/>
    </flow>
    <flow id="2.2_4-4.2_4" type="passenger" begin="0.00" departLane="best" end="3600.00" vehsPerHour="900.00">
        <route edges="gneE551 gneE551.161 gneE555 gneE556 gneE564 gneE566 gneE575 gneE573 gneE576 gneE576.71" color="cyan"/>
    </flow>
    <flow id="2.3_2-1.4_2" type="passenger" begin="0.00" departLane="best" end="3600.00" vehsPerHour="100.00">
        <route edges="-gneE567 gneE553 gneE554 gneE550 gneE550.54" color="cyan"/>
    </flow>
    <flow id="2.3_4-4.2_4" type="passenger" begin="0.00" departLane="best" end="3600.00" vehsPerHour="48.00">
        <route edges="-gneE567 gneE564 gneE566 gneE575 gneE573 gneE576 gneE576.71" color="cyan"/>
    </flow>
    <flow id="3.3_2-1.4_2" type="passenger" begin="0.00" departLane="best" end="3600.00" vehsPerHour="156.00">
        <route edges="gneE571 gneE569 gneE563 gneE565 gneE565.156 gneE553 gneE554 gneE550 gneE550.54" color="cyan"/>
    </flow>
    <flow id="3.3_4-4.2_4" type="passenger" begin="0.00" departLane="best" end="3600.00" vehsPerHour="68.00">
        <route edges="gneE571 gneE569 gneE575 gneE573 gneE576 gneE576.71" color="cyan"/>
    </flow>
    <flow id="4.3_1-8.3_1" type="passenger" begin="0.00" departLane="best" end="3600.00" vehsPerHour="650.99">
        <route edges="gneE581 gneE581.157 gneE531.3 gneE531.131 gneE531.49 gneE532 gneE380 gneE380.70 gneE380.125 gneE380.211 gneE380.987 gneE542 gneE542.128" color="cyan"/>
    </flow>
    <flow id="4.3_2-1.4_2" type="passenger" begin="0.00" departLane="best" end="3600.00" vehsPerHour="354.02">
        <route edges="gneE581 gneE586 gneE572 gneE563 gneE565 gneE565.156 gneE553 gneE554 gneE550 gneE550.54" color="cyan"/>
    </flow>
    <flow id="4.3_4" type="passenger" begin="0.00" departLane="best" end="3600.00" vehsPerHour="24.00">
        <route edges="gneE581 gneE581.157 gneE531.3 gneE531.131 -gneE534 gneE69.98 gneE69.171 gneE70 -gneE28 gneE575 gneE573 gneE576 gneE576.71" color="cyan"/>
    </flow>
    <flow id="4.4_1-6.3_4" type="passenger" begin="0.00" departLane="best" end="3600.00" vehsPerHour="173.00">
        <route edges="gneE577 gneE578 gneE578.42 gneE531.3 gneE531.131 gneE531.49 gneE532 gneE83" color="cyan"/>
    </flow>
    <flow id="4.4_1-8.3_1" type="passenger" begin="0.00" departLane="best" end="3600.00" vehsPerHour="1000.00">
        <route edges="gneE577 gneE578 gneE578.42 gneE531.3 gneE531.131 gneE531.49 gneE532 gneE380 gneE380.70 gneE380.125 gneE380.211 gneE380.987 gneE542 gneE542.128" color="cyan"/>
    </flow>
    <flow id="4.4_2-1.4_2" type="passenger" begin="0.00" departLane="best" end="3600.00" vehsPerHour="699.98">
        <route edges="gneE577 gneE578 gneE578.42 gneE574 gneE572 gneE563 gneE565 gneE565.156 gneE553 gneE554 gneE550 gneE550.54" color="cyan"/>
    </flow>
    <flow id="4.4_2-7.3_1" type="passenger" begin="0.00" departLane="best" end="3600.00" vehsPerHour="600.00">
        <route edges="gneE577 gneE578 gneE578.42 gneE574 gneE572 gneE563 gneE565 gneE565.156 gneE553 gneE554 gneE547 gneE547.80 gneE408.4 gneE408.444 gneE408.482 gneE408.653 gneE408.722 gneE409 gneE409.56 gneE409.87 gneE409.184 gneE409.250 gneE409.250.460" color="cyan"/>
    </flow>
    <flow id="4.4_3" type="passenger" begin="0.00" departLane="best" end="3600.00" vehsPerHour="137.00">
        <route edges="gneE577 gneE578 gneE585 gneE582.65" color="cyan"/>
    </flow>
    <flow id="7.1_2" type="passenger" begin="0.00" departLane="best" end="3600.00" vehsPerHour="188.00">
        <route edges="gneE385 gneE385.126 gneE385.441 gneE385.600 gneE385.600.137 -gneE179 -gneE179.27" color="cyan"/>
    </flow>
    <flow id="7.1_3-1.1_3" type="passenger" begin="0.00" departLane="best" end="3600.00" vehsPerHour="500.00">
        <route edges="gneE385 gneE385.126 gneE385.441 gneE385.600 gneE385.600.137 gneE386 gneE386.42 gneE386.104 gneE386.243 gneE403 gneE403.61 gneE548 gneE548.96 gneE548.141 gneE549 gneE549.67" color="cyan"/>
    </flow>
    <flow id="7.1_3-2.2_3" type="passenger" begin="0.00" departLane="best" end="3600.00" vehsPerHour="100.00">
        <route edges="gneE385 gneE385.126 gneE385.441 gneE385.600 gneE385.600.137 gneE386 gneE386.42 gneE386.104 gneE386.243 gneE403 gneE403.61 gneE548 gneE560 gneE556 gneE567 gneE567.74" color="cyan"/>
    </flow>
    <flow id="7.1_3-3.2_3" type="passenger" begin="0.00" departLane="best" end="3600.00" vehsPerHour="50.00">
        <route edges="gneE385 gneE385.126 gneE385.441 gneE385.600 gneE385.600.137 gneE386 gneE386.42 gneE386.104 gneE386.243 gneE403 gneE403.61 gneE548 gneE560 gneE556 gneE564 gneE566 gneE570" color="cyan"/>
    </flow>
    <flow id="7.2_1" type="passenger" begin="0.00" departLane="best" end="3600.00" vehsPerHour="133.00">
        <route edges="gneE179 gneE179.220 gneE409 gneE409.56 gneE409.87 gneE409.184 gneE409.250 gneE409.250.460" color="cyan"/>
    </flow>
    <flow id="7.2_3-1.1_3" type="passenger" begin="0.00" departLane="best" end="3600.00" vehsPerHour="200.00">
        <route edges="gneE179 gneE179.220 gneE386 gneE386.42 gneE386.104 gneE386.243 gneE403 gneE403.61 gneE548 gneE548.96 gneE548.141 gneE549 gneE549.67" color="cyan"/>
    </flow>
    <flow id="7.2_3-3.2_3" type="passenger" begin="0.00" departLane="best" end="3600.00" vehsPerHour="240.00">
        <route edges="gneE179 gneE179.220 gneE386 gneE386.42 gneE386.104 gneE386.243 gneE403 gneE403.61 gneE548 gneE560 gneE556 gneE564 gneE566 gneE570" color="cyan"/>
    </flow>
    <flow id="8.1_3-4.1_3" type="passenger" begin="0.00" departLane="best" end="3600.00" vehsPerHour="1000.00">
        <route edges="gneE543 gneE543.103 gneE543.188 gneE543.225 gneE543.286 gneE372.156 gneE372.265 gneE372.352 gneE372.432 gneE372.836 gneE372.941 gneE533 gneE533.45 gneE533.106 gneE533.144 gneE533.385 gneE533.483 gneE582 gneE582.65" color="cyan"/>
    </flow>
    <flow id="8.1_3-4.1_4" type="passenger" begin="0.00" departLane="best" end="3600.00" vehsPerHour="483.03">
        <route edges="gneE543 gneE543.103 gneE543.188 gneE543.225 gneE543.286 gneE372.156 gneE372.265 gneE372.352 gneE372.432 gneE372.836 gneE372.941 gneE533 gneE533.45 gneE533.106 gneE533.144 gneE533.385 gneE584 gneE576.71" color="cyan"/>
    </flow>
</routes>
