<?xml version="1.0" encoding="UTF-8"?>
<configuration
    xmlns:xsi="http://www.w3.org/2001/XMLSchema-instance" xsi:noNamespaceSchemaLocation="http://sumo.dlr.de/xsd/sumoConfiguration.xsd">
    <input>
        <net-file value="greenline.net.xml"/>
        <additional-files value="vType.trips.xml,taz.add.xml"/>
        <route-files value="vehicles.rou.xml"/>
    </input>
    <time>
        <begin value="0"/>
        <end value="2500"/>
    </time>
    <gui_only>
        <gui-settings-file value="gui.settings.xml"/>
    </gui_only>
</configuration>