<?xml version="1.0" encoding="UTF-8"?>
<configuration
    xmlns:xsi="http://www.w3.org/2001/XMLSchema-instance" xsi:noNamespaceSchemaLocation="http://sumo.dlr.de/xsd/sumoConfiguration.xsd">
    <input>
        <net-file value="greenline.net.xml"/>
        <route-files value="out_in\od\morning.trips.xml"/>
        <additional-files value="vType.trips.xml,taz.add.xml,generate.edge.add.xml"/>
    </input>
    <processing>
        <report>
            <verbose value="true"/>
            <duration-log.statistics value="true"/>
            <no-step-log value="true"/>
        </report>
    </processing>
    <routing>
        <device.rerouting.probability value="1"/>
        <device.rerouting.period value="30"/>
        <device.rerouting.pre-period value="10"/>
        <device.rerouting.with-taz value="true"/>
        <!-- <device.rerouting.adaptation-weight value="1"/> -->
        <device.rerouting.threads value="4"/>
    </routing>
    <time>
        <begin value="0"/>
        <end value="7400"/>
        <step-length value="1"/>
    </time>
    <gui_only>
        <gui-settings-file value="gui.settings.xml"/>
    </gui_only>
</configuration>