<?xml version="1.0" encoding="UTF-8"?>

<!-- generated on 12/04/20 11:28:17 by Eclipse SUMO netedit Version 1.8.0
<configuration xmlns:xsi="http://www.w3.org/2001/XMLSchema-instance" xsi:noNamespaceSchemaLocation="http://sumo.dlr.de/xsd/netconvertConfiguration.xsd">

    <input>
        <sumo-net-file value="D:\MEGA\Greenline\Greenline_sumo\greenline_OD\greenline.net.xml"/>
    </input>

    <output>
        <output-file value="D:\MEGA\Greenline\Greenline_sumo\greenline_OD\greenline.net.xml"/>
    </output>

    <processing>
        <geometry.min-radius.fix.railways value="false"/>
        <geometry.max-grade.fix value="false"/>
        <offset.disable-normalization value="true"/>
        <lefthand value="false"/>
    </processing>

    <junctions>
        <no-turnarounds value="true"/>
        <junctions.corner-detail value="5"/>
        <junctions.limit-turn-speed value="5.5"/>
        <rectangular-lane-cut value="false"/>
    </junctions>

    <pedestrian>
        <walkingareas value="false"/>
    </pedestrian>

    <netedit>
        <additional-files value="D:\MEGA\Greenline\Greenline_sumo\greenline_OD\taz.add.xml"/>
    </netedit>

    <report>
        <aggregate-warnings value="5"/>
    </report>

</configuration>
-->

<additional xmlns:xsi="http://www.w3.org/2001/XMLSchema-instance" xsi:noNamespaceSchemaLocation="http://sumo.dlr.de/xsd/additional_file.xsd">
    <taz id="1" shape="177.99,998.95 223.21,997.89 243.51,996.81 243.48,968.77 233.43,951.55 176.63,954.13 177.99,998.95" color="red">
        <tazSource id="gneE253" weight="1.00"/>
        <tazSink id="gneE253" weight="0.00"/>
        <tazSource id="gneE254" weight="0.00"/>
        <tazSink id="gneE254" weight="1.00"/>
    </taz>
    <taz id="10" shape="140.90,644.60 154.05,668.58 91.88,768.99 65.77,770.14 52.04,751.54 63.23,723.09 66.39,658.93 59.84,613.33 98.37,611.65 140.90,644.60" color="red">
        <tazSource id="gneE270" weight="1.00"/>
        <tazSink id="gneE270" weight="0.00"/>
        <tazSource id="gneE269" weight="0.00"/>
        <tazSink id="gneE269" weight="1.00"/>
    </taz>
    <taz id="101" shape="-803.15,-76.15 -799.51,-200.82 -812.92,-200.05 -816.20,-76.29 -803.15,-76.15" color="blue">
        <tazSource id="gneE56" weight="1.00"/>
        <tazSink id="gneE56" weight="0.00"/>
        <tazSource id="-gneE56" weight="0.00"/>
        <tazSink id="-gneE56" weight="1.00"/>
    </taz>
    <taz id="102" shape="-672.58,1166.32 -677.73,1073.26 -691.59,1074.77 -686.20,1167.19 -672.58,1166.32" color="blue">
        <tazSource id="gneE44" weight="1.00"/>
        <tazSink id="gneE44" weight="0.00"/>
        <tazSource id="-gneE44" weight="0.00"/>
        <tazSink id="-gneE44" weight="1.00"/>
    </taz>
    <taz id="103" shape="294.64,1286.01 295.50,1297.30 353.97,1295.61 353.50,1284.72 294.64,1286.01" color="blue">
        <tazSource id="gneE179" weight="1.00"/>
        <tazSink id="gneE179" weight="0.00"/>
        <tazSource id="-gneE179" weight="0.00"/>
        <tazSink id="-gneE179" weight="1.00"/>
    </taz>
    <taz id="104" shape="1371.98,1359.50 1372.70,1371.57 1447.44,1367.77 1447.14,1355.41 1371.98,1359.50" color="blue">
        <tazSource id="gneE7" weight="1.00"/>
        <tazSink id="gneE7" weight="0.00"/>
        <tazSource id="-gneE7" weight="0.00"/>
        <tazSink id="-gneE7" weight="1.00"/>
    </taz>
    <taz id="105" shape="1755.24,1075.55 1755.46,1003.76 1741.70,1003.60 1742.69,1076.09 1755.24,1075.55" color="blue">
        <tazSource id="gneE240" weight="1.00"/>
        <tazSink id="gneE240" weight="0.00"/>
        <tazSource id="gneE241" weight="0.00"/>
        <tazSink id="gneE241" weight="1.00"/>
    </taz>
    <taz id="106" shape="1773.06,728.94 1772.72,659.84 1762.30,660.38 1761.16,729.03 1773.06,728.94" color="blue">
        <tazSource id="gneE20" weight="1.00"/>
        <tazSink id="gneE20" weight="0.00"/>
        <tazSource id="-gneE20" weight="0.00"/>
        <tazSink id="-gneE20" weight="1.00"/>
    </taz>
    <taz id="107" shape="1587.86,220.99 1587.86,130.15 1600.77,130.26 1599.86,220.76 1587.86,220.99" color="blue">
        <tazSource id="gneE27" weight="1.00"/>
        <tazSink id="gneE27" weight="0.00"/>
        <tazSource id="-gneE27" weight="0.00"/>
        <tazSink id="-gneE27" weight="1.00"/>
    </taz>
    <taz id="108" shape="1634.01,-90.32 1631.81,-177.54 1624.40,-177.71 1625.55,-90.07 1634.01,-90.32" color="blue">
        <tazSource id="-gneE64" weight="1.00"/>
        <tazSink id="-gneE64" weight="0.00"/>
        <tazSource id="gneE64" weight="0.00"/>
        <tazSink id="gneE64" weight="1.00"/>
    </taz>
    <taz id="109" shape="1260.11,-394.13 1369.33,-394.94 1369.72,-382.50 1260.38,-382.14 1260.11,-394.13" color="blue">
        <tazSource id="-gneE17" weight="1.00"/>
        <tazSink id="-gneE17" weight="0.00"/>
        <tazSource id="gneE17" weight="0.00"/>
        <tazSink id="gneE17" weight="1.00"/>
    </taz>
    <taz id="11" shape="398.38,754.47 137.31,766.54 183.89,656.13 392.63,646.36 398.38,754.47" color="red"/>
    <taz id="110" shape="727.23,-281.58 666.02,-280.66 666.44,-290.66 727.72,-291.25 727.23,-281.58" color="blue">
        <tazSource id="-gneE83" weight="1.00"/>
        <tazSink id="-gneE83" weight="0.00"/>
        <tazSource id="gneE83" weight="0.00"/>
        <tazSink id="gneE83" weight="1.00"/>
    </taz>
    <taz id="12" shape="429.82,751.37 552.08,744.89 547.76,638.61 430.25,642.49 429.82,751.37" color="red">
        <tazSource id="gneE272" weight="1.00"/>
        <tazSink id="gneE272" weight="0.00"/>
        <tazSource id="gneE271" weight="0.00"/>
        <tazSink id="gneE271" weight="1.00"/>
    </taz>
    <taz id="13" shape="117.69,537.66 118.55,593.82 154.41,621.04 250.76,617.58 268.47,580.43 265.88,531.18 117.69,537.66" color="red">
        <tazSource id="gneE274" weight="1.00"/>
        <tazSink id="gneE274" weight="0.00"/>
        <tazSource id="gneE273" weight="0.00"/>
        <tazSink id="gneE273" weight="1.00"/>
    </taz>
    <taz id="14" shape="343.65,528.58 295.69,585.61 312.97,618.02 397.22,614.13 393.76,551.48 376.91,529.88 343.65,528.58" color="red">
        <tazSource id="gneE276" weight="1.00"/>
        <tazSink id="gneE276" weight="0.00"/>
        <tazSource id="gneE275" weight="0.00"/>
        <tazSink id="gneE275" weight="1.00"/>
    </taz>
    <taz id="15" shape="426.03,607.83 544.41,600.06 540.96,519.27 454.55,525.31 427.76,550.37 426.03,607.83" color="red">
        <tazSource id="gneE278" weight="1.00"/>
        <tazSink id="gneE278" weight="0.00"/>
        <tazSource id="gneE277" weight="0.00"/>
        <tazSink id="gneE277" weight="1.00"/>
    </taz>
    <taz id="16" shape="-38.30,484.83 -90.63,487.70 -92.36,354.29 -40.03,373.84 -38.30,484.83" color="red">
        <tazSource id="gneE280" weight="1.00"/>
        <tazSink id="gneE280" weight="0.00"/>
        <tazSource id="gneE279" weight="0.00"/>
        <tazSink id="gneE279" weight="1.00"/>
    </taz>
    <taz id="17" shape="-37.73,342.79 -9.55,285.29 -45.20,245.61 -62.45,236.98 -87.76,317.49 -37.73,342.79" color="red">
        <tazSource id="gneE282" weight="1.00"/>
        <tazSink id="gneE282" weight="0.00"/>
        <tazSource id="gneE281" weight="0.00"/>
        <tazSink id="gneE281" weight="1.00"/>
    </taz>
    <taz id="18" shape="44.38,271.08 81.92,285.82 78.59,251.60 108.06,207.40 -0.30,131.36 -48.30,210.73 2.08,240.67 3.03,229.74 11.58,216.91 30.12,213.58 47.23,218.81 44.38,271.08" color="red">
        <tazSource id="gneE284" weight="1.00"/>
        <tazSink id="gneE284" weight="0.00"/>
        <tazSource id="gneE283" weight="0.00"/>
        <tazSink id="gneE283" weight="1.00"/>
    </taz>
    <taz id="19" shape="19.78,478.50 88.21,476.78 83.61,342.79 41.05,326.69 21.50,365.79 19.78,478.50" color="red">
        <tazSource id="gneE286" weight="1.00"/>
        <tazSink id="gneE286" weight="0.00"/>
        <tazSource id="gneE285" weight="0.00"/>
        <tazSink id="gneE285" weight="1.00"/>
    </taz>
    <taz id="2" shape="307.93,995.60 416.82,989.99 415.64,945.43 394.10,937.17 375.81,945.12 308.23,947.50 307.93,995.60" color="red">
        <tazSource id="gneE256" weight="1.00"/>
        <tazSink id="gneE256" weight="0.00"/>
        <tazSource id="gneE255" weight="0.00"/>
        <tazSink id="gneE255" weight="1.00"/>
    </taz>
    <taz id="20" shape="138.90,392.29 111.34,393.06 118.23,468.83 210.84,467.30 207.78,438.98 138.90,392.29" color="red">
        <tazSource id="gneE288" weight="1.00"/>
        <tazSink id="gneE288" weight="0.00"/>
        <tazSource id="gneE287" weight="0.00"/>
        <tazSink id="gneE287" weight="1.00"/>
    </taz>
    <taz id="21" shape="219.26,387.70 383.82,377.75 383.82,455.05 293.51,461.18 272.08,432.86 246.05,434.39 222.33,416.78 219.26,387.70" color="red">
        <tazSource id="gneE290" weight="1.00"/>
        <tazSink id="gneE290" weight="0.00"/>
        <tazSource id="gneE289" weight="0.00"/>
        <tazSink id="gneE289" weight="1.00"/>
    </taz>
    <taz id="22" shape="413.72,444.43 435.61,459.59 536.64,456.22 535.80,373.71 415.40,377.92 413.72,444.43" color="red">
        <tazSource id="gneE251" weight="1.00"/>
        <tazSink id="gneE251" weight="0.00"/>
        <tazSource id="gneE252" weight="0.00"/>
        <tazSink id="gneE252" weight="1.00"/>
    </taz>
    <taz id="23" shape="112.89,320.18 144.38,352.59 377.76,344.26 368.50,266.46 284.22,268.32 286.07,242.38 118.45,253.50 112.89,320.18" color="red"/>
    <taz id="24" shape="418.02,281.76 415.81,233.19 473.72,230.70 514.19,246.89 532.25,335.30 421.42,342.78 418.02,281.76" color="red">
        <tazSource id="gneE238" weight="1.00"/>
        <tazSink id="gneE238" weight="0.00"/>
        <tazSource id="gneE239" weight="0.00"/>
        <tazSink id="gneE239" weight="1.00"/>
    </taz>
    <taz id="25" shape="-63.77,1013.87 54.87,1006.98 51.80,918.96 27.31,899.06 0.52,909.78 -17.08,912.84 -68.36,917.43 -63.77,1013.87" color="blue">
        <tazSource id="gneE295" weight="1.00"/>
        <tazSink id="gneE295" weight="0.00"/>
        <tazSource id="gneE294" weight="0.00"/>
        <tazSink id="gneE294" weight="1.00"/>
    </taz>
    <taz id="26" shape="-184.10,1056.08 -92.25,1051.91 -97.82,918.31 -189.66,922.49 -184.10,1056.08" color="blue">
        <tazSource id="gneE297" weight="1.00"/>
        <tazSink id="gneE297" weight="0.00"/>
        <tazSource id="gneE296" weight="0.00"/>
        <tazSink id="gneE296" weight="1.00"/>
    </taz>
    <taz id="27" shape="-191.05,882.13 -104.77,877.96 -106.86,793.07 -191.75,795.15 -191.05,882.13" color="blue">
        <tazSource id="gneE299" weight="1.00"/>
        <tazSink id="gneE299" weight="0.00"/>
        <tazSource id="gneE298" weight="0.00"/>
        <tazSink id="gneE298" weight="1.00"/>
    </taz>
    <taz id="28" shape="-194.13,760.84 -107.88,757.70 -118.85,551.21 -198.31,551.73 -194.13,760.32 -194.13,760.84" color="blue">
        <tazSource id="gneE301" weight="1.00"/>
        <tazSink id="gneE301" weight="0.00"/>
        <tazSource id="gneE300" weight="0.00"/>
        <tazSink id="gneE300" weight="1.00"/>
    </taz>
    <taz id="29" shape="-205.31,486.72 -212.96,309.92 -124.94,339.00 -118.06,479.83 -205.31,486.72" color="blue">
        <tazSource id="gneE303" weight="1.00"/>
        <tazSink id="gneE303" weight="0.00"/>
        <tazSource id="gneE302" weight="0.00"/>
        <tazSink id="gneE302" weight="1.00"/>
    </taz>
    <taz id="3" shape="438.50,1002.58 567.46,995.79 564.51,911.10 439.98,916.41 438.50,1002.58" color="red">
        <tazSource id="gneE258" weight="1.00"/>
        <tazSink id="gneE258" weight="0.00"/>
        <tazSource id="gneE257" weight="0.00"/>
        <tazSink id="gneE257" weight="1.00"/>
    </taz>
    <taz id="30" shape="-212.87,270.47 -116.04,307.52 -91.63,223.33 -169.09,182.07 -217.92,178.70 -212.87,270.47" color="blue">
        <tazSource id="gneE305" weight="1.00"/>
        <tazSink id="gneE305" weight="0.00"/>
        <tazSource id="gneE304" weight="0.00"/>
        <tazSink id="gneE304" weight="1.00"/>
    </taz>
    <taz id="31" shape="-216.50,144.31 -168.51,144.31 -149.14,151.04 -78.42,190.61 -30.43,113.16 -64.95,83.69 -99.47,69.38 -139.04,62.64 -218.18,64.32 -216.50,144.31" color="blue">
        <tazSource id="gneE307" weight="1.00"/>
        <tazSink id="gneE307" weight="0.00"/>
        <tazSource id="gneE306" weight="0.00"/>
        <tazSink id="gneE306" weight="1.00"/>
    </taz>
    <taz id="32" shape="-219.57,24.13 -222.94,-75.22 -72.23,-79.43 -72.23,26.66 -219.57,24.13" color="blue">
        <tazSource id="gneE309" weight="1.00"/>
        <tazSink id="gneE309" weight="0.00"/>
        <tazSource id="gneE308" weight="0.00"/>
        <tazSink id="gneE308" weight="1.00"/>
    </taz>
    <taz id="33" shape="38.35,96.34 153.77,185.99 188.51,200.56 487.71,182.63 461.94,137.80 422.71,84.01 375.65,54.88 312.90,25.74 254.62,7.81 205.32,7.81 150.41,22.38 121.27,38.07 79.81,62.72 38.35,96.34" color="blue"/>
    <taz id="34" shape="480.64,78.32 510.95,119.57 542.95,181.87 665.02,175.14 688.60,150.72 686.91,26.12 579.15,22.75 532.00,40.43 507.59,63.16 480.64,78.32" color="blue"/>
    <taz id="35" shape="561.90,339.19 695.76,334.98 693.24,262.58 561.90,272.68 561.90,339.19" color="blue">
        <tazSource id="gneE321" weight="1.00"/>
        <tazSink id="gneE321" weight="0.00"/>
        <tazSource id="gneE320" weight="0.00"/>
        <tazSink id="gneE320" weight="1.00"/>
    </taz>
    <taz id="36" shape="567.79,451.17 698.29,444.43 694.08,362.76 566.95,370.34 567.79,451.17" color="blue">
        <tazSource id="gneE319" weight="1.00"/>
        <tazSink id="gneE319" weight="0.00"/>
        <tazSource id="gneE318" weight="0.00"/>
        <tazSink id="gneE318" weight="1.00"/>
    </taz>
    <taz id="37" shape="705.99,596.17 701.24,513.22 578.54,520.13 582.43,595.74 705.99,596.17" color="blue">
        <tazSource id="gneE317" weight="1.00"/>
        <tazSink id="gneE317" weight="0.00"/>
        <tazSource id="gneE316" weight="0.00"/>
        <tazSink id="gneE316" weight="1.00"/>
    </taz>
    <taz id="38" shape="584.93,743.81 714.54,737.33 710.65,628.88 584.93,634.50 584.93,743.81" color="blue">
        <tazSource id="gneE315" weight="1.00"/>
        <tazSink id="gneE315" weight="0.00"/>
        <tazSource id="gneE314" weight="0.00"/>
        <tazSink id="gneE314" weight="1.00"/>
    </taz>
    <taz id="39" shape="590.75,880.74 725.72,873.60 720.01,774.69 587.54,782.19 590.75,880.74" color="blue">
        <tazSource id="gneE313" weight="1.00"/>
        <tazSink id="gneE313" weight="0.00"/>
        <tazSource id="gneE312" weight="0.00"/>
        <tazSink id="gneE312" weight="1.00"/>
    </taz>
    <taz id="4" shape="170.83,888.49 197.77,929.72 284.11,926.80 279.89,795.66 169.20,801.83 170.83,888.49" color="red">
        <tazSource id="gneE260" weight="1.00"/>
        <tazSink id="gneE260" weight="0.00"/>
        <tazSource id="gneE259" weight="0.00"/>
        <tazSink id="gneE259" weight="1.00"/>
    </taz>
    <taz id="40" shape="594.31,994.84 724.70,988.55 724.31,899.00 596.66,906.47 594.31,994.84" color="blue">
        <tazSource id="gneE311" weight="1.00"/>
        <tazSink id="gneE311" weight="0.00"/>
        <tazSource id="gneE310" weight="0.00"/>
        <tazSink id="gneE310" weight="1.00"/>
    </taz>
    <taz id="5" shape="308.18,793.64 310.59,927.77 356.73,926.16 375.78,915.70 397.24,900.41 409.58,888.34 403.14,790.15 308.18,793.64" color="red">
        <tazSource id="gneE262" weight="1.00"/>
        <tazSink id="gneE262" weight="0.00"/>
        <tazSource id="gneE261" weight="0.00"/>
        <tazSink id="gneE261" weight="1.00"/>
    </taz>
    <taz id="6" shape="434.53,888.76 564.53,880.51 559.43,783.50 434.14,788.61 434.53,888.76" color="red">
        <tazSource id="gneE264" weight="1.00"/>
        <tazSink id="gneE264" weight="0.00"/>
        <tazSource id="gneE263" weight="0.00"/>
        <tazSink id="gneE263" weight="1.00"/>
    </taz>
    <taz id="7" shape="-76.57,786.87 -72.68,882.63 -35.35,881.01 -15.87,876.14 3.28,866.72 11.07,861.20 -14.90,786.55 -76.57,786.87" color="red">
        <tazSource id="gneE292" weight="1.00"/>
        <tazSink id="gneE292" weight="0.00"/>
        <tazSource id="gneE291" weight="0.00"/>
        <tazSink id="gneE291" weight="1.00"/>
    </taz>
    <taz id="8" shape="-75.79,761.86 -20.13,757.68 -29.87,629.65 -42.39,568.42 -48.65,545.46 -89.01,547.55 -75.79,761.86" color="red">
        <tazSource id="gneE266" weight="1.00"/>
        <tazSink id="gneE266" weight="0.00"/>
        <tazSource id="gneE265" weight="0.00"/>
        <tazSink id="gneE265" weight="1.00"/>
    </taz>
    <taz id="9" shape="87.38,589.11 60.44,596.12 37.41,536.04 87.38,534.74 87.38,589.11" color="red">
        <tazSource id="gneE268" weight="1.00"/>
        <tazSink id="gneE268" weight="0.00"/>
        <tazSource id="gneE267" weight="0.00"/>
        <tazSink id="gneE267" weight="1.00"/>
    </taz>
</additional>
