<?xml version="1.0" encoding="UTF-8"?>
<!-- generated on 12/05/20 02:09:22 by Eclipse SUMO netedit Version 1.8.0
<configuration
xmlns:xsi="http://www.w3.org/2001/XMLSchema-instance" xsi:noNamespaceSchemaLocation="http://sumo.dlr.de/xsd/netconvertConfiguration.xsd"><input><sumo-net-file value="D:\MEGA\Greenline\Greenline_sumo\greenline_OD\greenline.net.xml"/></input><output><output-file value="D:\MEGA\Greenline\Greenline_sumo\greenline_OD\greenline.net.xml"/></output><processing><geometry.min-radius.fix.railways value="false"/><geometry.max-grade.fix value="false"/><offset.disable-normalization value="true"/><lefthand value="false"/></processing><junctions><no-turnarounds value="true"/><junctions.corner-detail value="5"/><junctions.limit-turn-speed value="5.5"/><rectangular-lane-cut value="false"/></junctions><pedestrian><walkingareas value="false"/></pedestrian><netedit><additional-files value="D:\MEGA\Greenline\Greenline_sumo\greenline_OD\taz.add.xml"/><route-files value="D:\MEGA\Greenline\Greenline_sumo\greenline_OD\vehicles.rou.xml"/></netedit><report><aggregate-warnings value="5"/></report></configuration>
-->
<additional
    xmlns:xsi="http://www.w3.org/2001/XMLSchema-instance" xsi:noNamespaceSchemaLocation="http://sumo.dlr.de/xsd/additional_file.xsd">
    <taz id="1" shape="135.73,1009.83 231.17,1003.29 229.87,964.66 197.99,939.99 131.94,942.32 135.73,1009.83" color="red">
        <tazSink id="gneE253" weight="0.00"/>
        <tazSource id="gneE253" weight="1.00"/>
        <tazSink id="gneE254" weight="1.00"/>
        <tazSource id="gneE254" weight="0.00"/>
    </taz>
    <taz id="10" shape="134.68,638.06 144.72,643.46 152.62,644.75 173.28,644.34 186.28,659.70 118.54,757.59 87.00,763.65 69.06,749.61 66.92,744.19 66.88,738.23 68.02,727.56 72.09,696.10 73.21,680.26 73.57,666.74 71.42,649.08 67.34,622.26 106.18,614.20 134.68,638.06" color="red">
        <tazSink id="gneE270" weight="0.00"/>
        <tazSource id="gneE270" weight="1.00"/>
        <tazSink id="gneE269" weight="1.00"/>
        <tazSource id="gneE269" weight="0.00"/>
    </taz>
    <taz id="101" shape="-803.15,-76.15 -799.51,-200.82 -812.92,-200.05 -816.20,-76.29 -803.15,-76.15" color="blue">
        <tazSink id="gneE56" weight="0.00"/>
        <tazSource id="gneE56" weight="1.00"/>
        <tazSink id="-gneE56" weight="1.00"/>
        <tazSource id="-gneE56" weight="0.00"/>
    </taz>
    <taz id="102" shape="-672.58,1166.32 -677.73,1073.26 -691.59,1074.77 -686.20,1167.19 -672.58,1166.32" color="blue">
        <tazSink id="gneE44" weight="0.00"/>
        <tazSource id="gneE44" weight="1.00"/>
        <tazSink id="-gneE44" weight="1.00"/>
        <tazSource id="-gneE44" weight="0.00"/>
    </taz>
    <taz id="103" shape="294.64,1286.01 295.50,1297.30 353.97,1295.61 353.50,1284.72 294.64,1286.01" color="blue">
        <tazSink id="gneE179" weight="0.00"/>
        <tazSource id="gneE179" weight="1.00"/>
        <tazSink id="-gneE179" weight="1.00"/>
        <tazSource id="-gneE179" weight="0.00"/>
    </taz>
    <taz id="104" shape="1371.98,1359.50 1372.70,1371.57 1447.44,1367.77 1447.14,1355.41 1371.98,1359.50" color="blue">
        <tazSink id="gneE7" weight="0.00"/>
        <tazSource id="gneE7" weight="1.00"/>
        <tazSink id="-gneE7" weight="1.00"/>
        <tazSource id="-gneE7" weight="0.00"/>
    </taz>
    <taz id="105" shape="1755.24,1075.55 1755.46,1003.76 1741.70,1003.60 1742.69,1076.09 1755.24,1075.55" color="blue">
        <tazSink id="gneE240" weight="0.00"/>
        <tazSource id="gneE240" weight="1.00"/>
        <tazSink id="gneE241" weight="1.00"/>
        <tazSource id="gneE241" weight="0.00"/>
    </taz>
    <taz id="106" shape="1773.06,728.94 1772.72,659.84 1762.30,660.38 1761.16,729.03 1773.06,728.94" color="blue">
        <tazSink id="gneE20" weight="0.00"/>
        <tazSource id="gneE20" weight="1.00"/>
        <tazSink id="-gneE20" weight="1.00"/>
        <tazSource id="-gneE20" weight="0.00"/>
    </taz>
    <taz id="107" shape="1587.86,220.99 1587.86,130.15 1600.77,130.26 1599.86,220.76 1587.86,220.99" color="blue">
        <tazSink id="gneE27" weight="0.00"/>
        <tazSource id="gneE27" weight="1.00"/>
        <tazSink id="-gneE27" weight="1.00"/>
        <tazSource id="-gneE27" weight="0.00"/>
    </taz>
    <taz id="108" shape="1634.01,-90.32 1631.81,-177.54 1624.40,-177.71 1625.55,-90.07 1634.01,-90.32" color="blue">
        <tazSink id="-gneE64" weight="0.00"/>
        <tazSource id="-gneE64" weight="1.00"/>
        <tazSink id="gneE64" weight="1.00"/>
        <tazSource id="gneE64" weight="0.00"/>
    </taz>
    <taz id="109" shape="1260.11,-394.13 1369.33,-394.94 1369.72,-382.50 1260.38,-382.14 1260.11,-394.13" color="blue">
        <tazSink id="-gneE17" weight="0.00"/>
        <tazSource id="-gneE17" weight="1.00"/>
        <tazSink id="gneE17" weight="1.00"/>
        <tazSource id="gneE17" weight="0.00"/>
    </taz>
    <taz id="11" shape="420.13,754.65 158.34,765.19 151.91,756.54 230.04,642.46 414.07,636.38 420.13,754.65" color="red"/>
    <taz id="110" shape="727.23,-281.58 666.02,-280.66 666.44,-290.66 727.72,-291.25 727.23,-281.58" color="blue">
        <tazSink id="-gneE83" weight="0.00"/>
        <tazSource id="-gneE83" weight="1.00"/>
        <tazSink id="gneE83" weight="1.00"/>
        <tazSource id="gneE83" weight="0.00"/>
    </taz>
    <taz id="12" shape="439.76,753.86 551.57,749.00 547.19,631.83 435.05,635.99 439.76,753.86" color="red">
        <tazSink id="gneE272" weight="0.00"/>
        <tazSource id="gneE272" weight="1.00"/>
        <tazSink id="gneE271" weight="1.00"/>
        <tazSource id="gneE271" weight="0.00"/>
    </taz>
    <taz id="13" shape="122.78,532.14 125.55,591.06 153.77,614.88 218.28,612.70 248.30,569.82 246.99,527.36 122.78,532.14" color="red">
        <tazSink id="gneE274" weight="0.00"/>
        <tazSource id="gneE274" weight="1.00"/>
        <tazSink id="gneE273" weight="1.00"/>
        <tazSource id="gneE273" weight="0.00"/>
    </taz>
    <taz id="14" shape="310.96,524.97 260.88,597.28 269.88,611.02 414.63,606.06 411.38,544.26 383.28,522.03 310.96,524.97" color="red">
        <tazSink id="gneE276" weight="0.00"/>
        <tazSource id="gneE276" weight="1.00"/>
        <tazSink id="gneE275" weight="1.00"/>
        <tazSource id="gneE275" weight="0.00"/>
    </taz>
    <taz id="15" shape="434.10,604.86 544.83,600.48 542.87,515.24 455.82,519.15 431.79,543.79 434.10,604.86" color="red">
        <tazSink id="gneE278" weight="0.00"/>
        <tazSource id="gneE278" weight="1.00"/>
        <tazSink id="gneE277" weight="1.00"/>
        <tazSource id="gneE277" weight="0.00"/>
    </taz>
    <taz id="16" shape="-26.12,478.71 -86.38,481.33 -87.07,374.83 -85.03,343.87 -33.32,361.98 -36.85,390.59 -37.11,410.05 -35.54,430.48 -26.12,478.71" color="red">
        <tazSink id="gneE280" weight="0.00"/>
        <tazSource id="gneE280" weight="1.00"/>
        <tazSink id="gneE279" weight="1.00"/>
        <tazSource id="gneE279" weight="0.00"/>
    </taz>
    <taz id="17" shape="-27.49,337.96 -23.95,328.27 -18.33,318.37 -12.76,310.13 -4.12,301.36 3.78,293.23 11.41,280.68 -40.06,240.07 -58.50,230.79 -68.61,259.31 -75.00,282.26 -79.04,302.51 -82.01,317.97 -27.49,337.96" color="red">
        <tazSink id="gneE282" weight="0.00"/>
        <tazSource id="gneE282" weight="1.00"/>
        <tazSink id="gneE281" weight="1.00"/>
        <tazSource id="gneE281" weight="0.00"/>
    </taz>
    <taz id="18" shape="50.50,277.45 81.28,285.40 80.03,251.60 81.09,243.89 83.47,236.51 94.86,221.18 107.74,205.01 58.03,166.90 49.87,163.42 41.89,158.16 -0.07,125.76 -17.46,151.35 -48.11,207.45 7.52,237.51 12.03,230.10 19.14,219.07 23.74,215.15 29.40,212.95 37.81,213.64 43.27,215.75 50.50,277.45" color="red">
        <tazSink id="gneE284" weight="0.00"/>
        <tazSource id="gneE284" weight="1.00"/>
        <tazSink id="gneE283" weight="1.00"/>
        <tazSource id="gneE283" weight="0.00"/>
    </taz>
    <taz id="19" shape="23.20,476.79 89.66,473.75 83.61,336.09 51.24,311.41 40.83,325.59 35.03,333.16 27.91,340.43 21.36,351.24 17.79,361.10 15.60,371.85 14.37,415.75 15.15,435.65 16.15,447.26 19.04,456.74 21.98,466.78 23.20,476.79" color="red">
        <tazSink id="gneE286" weight="0.00"/>
        <tazSource id="gneE286" weight="1.00"/>
        <tazSink id="gneE285" weight="1.00"/>
        <tazSource id="gneE285" weight="0.00"/>
    </taz>
    <taz id="2" shape="315.76,1000.67 427.69,998.25 426.37,937.17 397.58,926.59 383.00,933.30 368.27,936.13 314.17,938.08 315.76,1000.67" color="red">
        <tazSink id="gneE256" weight="0.00"/>
        <tazSource id="gneE256" weight="1.00"/>
        <tazSink id="gneE255" weight="1.00"/>
        <tazSource id="gneE255" weight="0.00"/>
    </taz>
    <taz id="20" shape="140.30,379.31 116.78,380.25 119.98,472.86 222.59,468.53 222.17,440.73 140.30,379.31" color="red">
        <tazSink id="gneE288" weight="0.00"/>
        <tazSource id="gneE288" weight="1.00"/>
        <tazSink id="gneE287" weight="1.00"/>
        <tazSource id="gneE287" weight="0.00"/>
    </taz>
    <taz id="21" shape="203.71,376.37 405.42,368.04 407.08,442.15 383.70,461.88 315.65,464.48 271.82,431.67 246.71,432.68 204.67,401.10 203.71,376.37" color="red">
        <tazSink id="gneE290" weight="0.00"/>
        <tazSource id="gneE290" weight="1.00"/>
        <tazSink id="gneE289" weight="1.00"/>
        <tazSource id="gneE289" weight="0.00"/>
    </taz>
    <taz id="22" shape="428.07,442.69 450.40,459.45 540.32,454.99 536.85,363.71 425.40,367.63 428.07,442.69" color="red">
        <tazSink id="gneE251" weight="0.00"/>
        <tazSource id="gneE251" weight="1.00"/>
        <tazSink id="gneE252" weight="1.00"/>
        <tazSource id="gneE252" weight="0.00"/>
    </taz>
    <taz id="23" shape="113.03,330.47 150.47,359.11 404.05,348.55 400.34,278.13 328.80,280.42 320.86,279.99 312.80,277.42 306.70,272.12 302.96,263.59 293.88,243.34 110.19,251.47 113.03,330.47" color="red"/>
    <taz id="24" shape="419.93,273.27 532.52,268.48 536.11,342.84 423.88,347.17 419.93,273.27" color="red">
        <tazSource id="gneE331" weight="1.00"/>
        <tazSink id="gneE331" weight="0.00"/>
        <tazSource id="gneE330" weight="0.00"/>
        <tazSink id="gneE330" weight="1.00"/>
    </taz>
    <taz id="25" shape="-63.00,1022.94 90.76,1012.77 86.89,912.00 54.13,887.58 40.09,875.73 22.27,889.88 5.29,898.20 -10.26,903.16 -22.05,905.10 -35.66,905.85 -67.64,907.28 -63.00,1022.94" color="blue">
        <tazSink id="gneE295" weight="0.00"/>
        <tazSource id="gneE295" weight="1.00"/>
        <tazSink id="gneE294" weight="1.00"/>
        <tazSource id="gneE294" weight="0.00"/>
    </taz>
    <taz id="26" shape="-179.01,1030.82 -97.69,1025.60 -102.76,908.90 -184.08,912.12 -179.01,1030.82" color="blue">
        <tazSink id="gneE297" weight="0.00"/>
        <tazSource id="gneE297" weight="1.00"/>
        <tazSink id="gneE296" weight="1.00"/>
        <tazSource id="gneE296" weight="0.00"/>
    </taz>
    <taz id="27" shape="-185.26,881.95 -104.24,878.49 -108.60,783.04 -189.24,786.08 -185.26,881.95" color="blue">
        <tazSink id="gneE299" weight="0.00"/>
        <tazSource id="gneE299" weight="1.00"/>
        <tazSink id="gneE298" weight="1.00"/>
        <tazSource id="gneE298" weight="0.00"/>
    </taz>
    <taz id="28" shape="-190.31,761.05 -109.20,757.57 -118.85,542.28 -199.27,545.51 -190.31,761.05" color="blue">
        <tazSink id="gneE301" weight="0.00"/>
        <tazSource id="gneE301" weight="1.00"/>
        <tazSink id="gneE300" weight="1.00"/>
        <tazSource id="gneE300" weight="0.00"/>
    </taz>
    <taz id="29" shape="-201.54,485.85 -209.10,299.11 -118.96,332.25 -121.07,358.51 -121.87,386.96 -121.10,482.29 -201.54,485.85" color="blue">
        <tazSink id="gneE303" weight="0.00"/>
        <tazSource id="gneE303" weight="1.00"/>
        <tazSink id="gneE302" weight="1.00"/>
        <tazSource id="gneE302" weight="0.00"/>
    </taz>
    <taz id="3" shape="448.31,996.98 560.92,995.09 557.51,894.52 445.12,899.13 448.31,996.98" color="red">
        <tazSink id="gneE258" weight="0.00"/>
        <tazSource id="gneE258" weight="1.00"/>
        <tazSink id="gneE257" weight="1.00"/>
        <tazSource id="gneE257" weight="0.00"/>
    </taz>
    <taz id="30" shape="-210.36,271.56 -115.50,306.54 -108.21,272.78 -103.21,253.88 -98.43,238.29 -89.65,214.50 -143.31,185.68 -157.28,178.77 -169.99,173.44 -178.61,171.09 -188.07,170.08 -214.36,170.92 -210.36,271.56" color="blue">
        <tazSink id="gneE305" weight="0.00"/>
        <tazSource id="gneE305" weight="1.00"/>
        <tazSink id="gneE304" weight="1.00"/>
        <tazSource id="gneE304" weight="0.00"/>
    </taz>
    <taz id="31" shape="-215.54,145.27 -184.06,144.97 -168.02,148.33 -159.44,150.60 -148.35,154.99 -79.21,191.40 -58.09,153.37 -43.56,130.17 -26.48,104.89 -50.72,85.75 -66.51,75.18 -84.67,66.67 -99.14,62.29 -119.72,58.60 -138.68,58.45 -218.98,59.22 -215.54,145.27" color="blue">
        <tazSink id="gneE307" weight="0.00"/>
        <tazSource id="gneE307" weight="1.00"/>
        <tazSink id="gneE306" weight="1.00"/>
        <tazSource id="gneE306" weight="0.00"/>
    </taz>
    <taz id="32" shape="-220.84,19.46 -224.97,-84.93 -63.79,-84.57 -62.89,31.75 -77.49,26.98 -94.18,22.36 -109.75,19.24 -122.56,18.33 -145.73,18.39 -220.84,19.46" color="blue">
        <tazSink id="gneE309" weight="0.00"/>
        <tazSource id="gneE309" weight="1.00"/>
        <tazSink id="gneE308" weight="1.00"/>
        <tazSource id="gneE308" weight="0.00"/>
    </taz>
    <taz id="33" shape="22.63,92.32 147.21,190.43 163.38,201.56 177.16,206.42 210.80,205.35 520.07,192.90 505.63,167.94 487.22,139.24 464.27,107.95 448.56,89.15 430.04,70.05 417.48,58.92 397.34,44.25 371.29,28.63 354.21,20.34 332.11,11.13 305.71,3.41 279.34,-1.87 253.83,-4.17 224.67,-4.37 193.69,-1.33 168.61,3.34 143.77,10.18 118.76,20.53 93.30,34.04 63.91,52.81 39.59,74.60 22.63,92.32" color="blue"/>
    <taz id="34" shape="475.33,74.07 510.47,119.57 535.60,159.98 553.00,190.96 672.68,185.98 693.86,171.13 687.55,15.91 585.37,15.57 575.45,16.30 564.13,18.40 548.76,24.86 529.93,36.76 502.81,55.98 475.33,74.07" color="blue"/>
    <taz id="35" shape="565.99,341.96 701.43,336.83 697.39,253.65 562.54,259.92 565.99,341.96" color="blue">
        <tazSink id="gneE321" weight="0.00"/>
        <tazSource id="gneE321" weight="1.00"/>
        <tazSink id="gneE320" weight="1.00"/>
        <tazSource id="gneE320" weight="0.00"/>
    </taz>
    <taz id="36" shape="573.07,453.66 705.51,448.25 701.93,359.36 569.71,364.61 573.07,453.66" color="blue">
        <tazSink id="gneE319" weight="0.00"/>
        <tazSource id="gneE319" weight="1.00"/>
        <tazSink id="gneE318" weight="1.00"/>
        <tazSource id="gneE318" weight="0.00"/>
    </taz>
    <taz id="37" shape="712.36,598.08 708.19,508.59 576.03,513.76 579.25,603.38 712.36,598.08" color="blue">
        <tazSink id="gneE317" weight="0.00"/>
        <tazSource id="gneE317" weight="1.00"/>
        <tazSink id="gneE316" weight="1.00"/>
        <tazSource id="gneE316" weight="0.00"/>
    </taz>
    <taz id="38" shape="585.14,747.84 718.15,742.00 712.96,623.49 580.31,628.34 585.14,747.84" color="blue">
        <tazSink id="gneE315" weight="0.00"/>
        <tazSource id="gneE315" weight="1.00"/>
        <tazSink id="gneE314" weight="1.00"/>
        <tazSource id="gneE314" weight="0.00"/>
    </taz>
    <taz id="39" shape="585.54,873.02 723.98,867.23 719.54,772.82 582.92,778.08 585.54,873.02" color="blue">
        <tazSink id="gneE313" weight="0.00"/>
        <tazSource id="gneE313" weight="1.00"/>
        <tazSink id="gneE312" weight="1.00"/>
        <tazSource id="gneE312" weight="0.00"/>
    </taz>
    <taz id="4" shape="135.43,875.89 166.51,921.59 283.31,918.51 279.89,790.72 144.03,796.58 132.36,799.28 135.43,875.89" color="red">
        <tazSink id="gneE260" weight="0.00"/>
        <tazSource id="gneE260" weight="1.00"/>
        <tazSink id="gneE259" weight="1.00"/>
        <tazSource id="gneE259" weight="0.00"/>
    </taz>
    <taz id="40" shape="588.71,993.44 729.14,990.18 724.78,890.13 585.86,895.75 588.71,993.44" color="blue">
        <tazSink id="gneE311" weight="0.00"/>
        <tazSource id="gneE311" weight="1.00"/>
        <tazSink id="gneE310" weight="1.00"/>
        <tazSource id="gneE310" weight="0.00"/>
    </taz>
    <taz id="41" shape="769.12,989.86 951.63,985.34 987.23,984.78 1045.15,985.91 1036.25,759.27 759.52,771.02 769.12,989.86" color="blue"/>
    <taz id="42" shape="1075.34,986.77 1346.61,1000.49 1335.82,746.96 1066.42,757.92 1075.34,986.77" color="blue"/>
    <taz id="43" shape="756.68,701.55 962.41,692.43 944.29,677.39 924.39,657.22 904.88,633.37 889.08,609.93 873.45,578.83 862.57,552.04 855.82,525.99 851.19,503.03 748.33,506.89 756.68,701.55" color="blue"/>
    <taz id="44" shape="746.04,446.84 848.49,442.63 850.46,424.14 853.93,406.00 856.48,393.58 859.59,381.24 862.78,370.10 866.72,358.34 875.22,338.02 885.33,318.56 898.48,296.28 915.09,273.84 930.33,257.21 941.91,245.46 737.54,253.18 746.04,446.84" color="blue"/>
    <taz id="45" shape="1332.45,674.78 1151.24,682.68 1130.76,682.20 1114.22,680.92 1091.77,676.71 1064.93,668.82 1041.77,658.12 1017.21,643.56 1000.19,630.93 988.62,621.10 973.76,604.76 956.97,582.57 943.08,559.03 933.24,535.10 927.34,514.32 922.90,493.28 920.78,472.64 920.40,454.69 922.47,429.13 925.87,411.30 932.02,390.07 939.20,371.41 949.73,350.20 964.29,327.55 985.35,303.63 1006.79,284.78 1025.06,272.31 1043.71,261.92 1067.05,251.63 1084.31,246.56 1110.98,240.90 1134.76,239.02 1313.85,231.27 1332.45,674.78" color="blue"/>
    <taz id="46" shape="1042.37,170.75 1310.00,159.97 1301.28,-54.53 1240.31,-92.30 1033.74,-89.57 1042.37,170.75" color="blue"/>
    <taz id="47" shape="734.05,177.12 743.18,183.50 1012.03,172.08 1002.43,-85.22 725.28,-82.21 734.05,177.12" color="blue"/>
    <taz id="48" shape="-60.38,33.42 -51.10,37.63 -42.12,42.85 -22.83,56.47 -0.94,73.29 13.56,58.36 27.62,45.17 55.17,23.27 87.79,3.27 117.51,-10.36 142.61,-19.98 172.67,-27.72 190.43,-30.88 210.71,-33.12 231.73,-33.99 256.68,-33.77 282.60,-30.83 304.93,-26.80 328.29,-20.71 350.57,-13.07 373.11,-3.31 396.83,9.21 417.73,22.75 429.11,30.78 442.17,41.80 457.63,55.58 511.71,19.38 533.85,4.48 547.03,-1.84 558.10,-5.93 568.72,-7.90 587.28,-9.35 686.57,-9.20 686.11,-82.20 -60.98,-84.74 -60.38,33.42" color="blue"/>
    <taz id="49" shape="-374.31,28.33 -260.33,26.98 -264.93,-85.67 -380.88,-85.59 -374.31,28.33" color="blue"/>
    <taz id="5" shape="310.21,789.44 313.75,917.60 364.98,916.34 376.65,914.50 388.56,908.85 398.98,900.63 406.38,892.09 412.40,886.56 418.58,883.35 425.78,880.78 421.70,784.50 310.21,789.44" color="red">
        <tazSink id="gneE262" weight="0.00"/>
        <tazSource id="gneE262" weight="1.00"/>
        <tazSink id="gneE261" weight="1.00"/>
        <tazSource id="gneE261" weight="0.00"/>
    </taz>
    <taz id="50" shape="-369.27,148.53 -255.44,146.36 -259.32,51.98 -373.29,53.04 -369.27,148.53" color="blue"/>
    <taz id="51" shape="-365.55,269.58 -250.59,265.80 -254.44,171.44 -369.32,173.78 -365.55,269.58" color="blue"/>
    <taz id="52" shape="-359.95,409.38 -241.96,478.92 -249.50,290.92 -364.61,294.39 -359.95,409.38" color="blue"/>
    <taz id="53" shape="-345.43,767.36 -230.21,762.47 -239.30,552.28 -351.30,619.42 -345.43,767.36" color="blue"/>
    <taz id="54" shape="-300.31,890.03 -225.45,885.78 -229.23,787.26 -337.52,791.52 -300.31,890.03" color="blue"/>
    <taz id="55" shape="-288.72,1037.67 -219.19,1033.36 -224.26,911.11 -295.85,915.35 -288.72,1037.67" color="blue"/>
    <taz id="6" shape="444.10,878.95 556.12,874.44 552.19,778.83 440.91,783.94 444.10,878.95" color="red">
        <tazSink id="gneE264" weight="0.00"/>
        <tazSource id="gneE264" weight="1.00"/>
        <tazSink id="gneE263" weight="1.00"/>
        <tazSource id="gneE263" weight="0.00"/>
    </taz>
    <taz id="7" shape="-73.41,779.33 -69.87,877.72 -35.35,876.10 -17.62,874.21 -4.09,869.70 10.85,861.20 56.98,819.26 25.78,773.72 22.89,768.24 20.54,762.34 -73.41,779.33" color="red">
        <tazSink id="gneE292" weight="0.00"/>
        <tazSource id="gneE292" weight="1.00"/>
        <tazSink id="gneE291" weight="1.00"/>
        <tazSource id="gneE291" weight="0.00"/>
    </taz>
    <taz id="8" shape="-74.52,753.58 17.23,737.09 21.43,701.37 23.57,681.86 23.10,659.79 20.83,639.81 14.90,618.07 -2.25,574.02 -16.81,538.32 -84.19,541.76 -74.52,753.58" color="red">
        <tazSink id="gneE266" weight="0.00"/>
        <tazSource id="gneE266" weight="1.00"/>
        <tazSink id="gneE265" weight="1.00"/>
        <tazSource id="gneE265" weight="0.00"/>
    </taz>
    <taz id="9" shape="95.66,595.69 62.14,603.55 36.35,535.83 92.47,533.68 95.66,595.69" color="red">
        <tazSink id="gneE268" weight="0.00"/>
        <tazSource id="gneE268" weight="1.00"/>
        <tazSink id="gneE267" weight="1.00"/>
        <tazSource id="gneE267" weight="0.00"/>
    </taz>
</additional>
