<?xml version="1.0" encoding="UTF-8"?>
<!-- generated on 12/13/20 19:43:33 by Eclipse SUMO netedit Version 1.8.0
<configuration
xmlns:xsi="http://www.w3.org/2001/XMLSchema-instance" xsi:noNamespaceSchemaLocation="http://sumo.dlr.de/xsd/netconvertConfiguration.xsd"><input><sumo-net-file value="D:\MEGA\Greenline\Greenline_sumo\greenline_OD\greenline.net.xml"/></input><output><output-file value="D:\MEGA\Greenline\Greenline_sumo\greenline_OD\greenline.net.xml"/></output><processing><geometry.min-radius.fix.railways value="false"/><geometry.max-grade.fix value="false"/><offset.disable-normalization value="true"/><lefthand value="false"/></processing><junctions><no-turnarounds value="true"/><junctions.corner-detail value="5"/><junctions.limit-turn-speed value="5.5"/><rectangular-lane-cut value="false"/></junctions><pedestrian><walkingareas value="false"/></pedestrian><netedit><additional-files value="D:\MEGA\Greenline\Greenline_sumo\greenline_OD\taz.add.xml"/></netedit><report><aggregate-warnings value="5"/></report></configuration>
-->
<additional
    xmlns:xsi="http://www.w3.org/2001/XMLSchema-instance" xsi:noNamespaceSchemaLocation="http://sumo.dlr.de/xsd/additional_file.xsd">
    <taz id="1" shape="133.04,1013.67 228.23,1007.13 225.90,965.56 198.50,944.85 129.00,945.77 133.04,1013.67" color="red">
        <tazSource id="-gneE400" weight="1.00"/>
        <tazSink id="-gneE400" weight="0.00"/>
        <tazSource id="gneE400.62" weight="0.00"/>
        <tazSink id="gneE400.62" weight="1.00"/>
    </taz>
    <taz id="10" shape="133.43,642.39 142.99,647.11 151.27,648.11 170.20,647.99 183.40,661.81 115.73,760.92 102.35,764.03 65.73,735.41 70.03,697.34 70.88,680.49 71.01,669.65 105.84,630.52 118.97,630.71 133.43,642.39" color="red">
        <tazSource id="gneE270" weight="1.00"/>
        <tazSink id="gneE270" weight="0.00"/>
        <tazSource id="gneE269" weight="0.00"/>
        <tazSink id="gneE269" weight="1.00"/>
    </taz>
    <taz id="101" shape="-615.82,-90.93 -616.87,-148.99 -628.31,-149.07 -626.73,-90.75 -615.82,-90.93" color="blue">
        <tazSource id="gneE543" weight="1.00"/>
        <tazSink id="gneE543" weight="0.00"/>
        <tazSource id="gneE542.128" weight="0.00"/>
        <tazSink id="gneE542.128" weight="1.00"/>
    </taz>
    <taz id="102" shape="-506.16,1139.21 -510.92,1063.77 -524.06,1064.80 -517.92,1140.27 -506.16,1139.21" color="blue">
        <tazSource id="gneE385" weight="1.00"/>
        <tazSink id="gneE385" weight="0.00"/>
        <tazSource id="gneE409.250.460" weight="0.00"/>
        <tazSink id="gneE409.250.460" weight="1.00"/>
    </taz>
    <taz id="103" shape="265.54,1287.40 265.78,1297.76 340.81,1295.30 340.50,1285.18 265.54,1287.40" color="blue">
        <tazSource id="gneE179" weight="1.00"/>
        <tazSink id="gneE179" weight="0.00"/>
        <tazSource id="-gneE179.27" weight="0.00"/>
        <tazSink id="-gneE179.27" weight="1.00"/>
    </taz>
    <taz id="104" shape="1373.10,1277.46 1373.82,1289.34 1429.08,1287.60 1428.90,1275.80 1373.10,1277.46" color="blue">
        <tazSource id="gneE551" weight="1.00"/>
        <tazSink id="gneE551" weight="0.00"/>
        <tazSource id="gneE550.54" weight="0.00"/>
        <tazSink id="gneE550.54" weight="1.00"/>
    </taz>
    <taz id="105" shape="1699.65,1081.04 1701.48,1010.35 1687.31,1009.78 1684.85,1081.02 1699.65,1081.04" color="blue">
        <tazSource id="-gneE549" weight="1.00"/>
        <tazSink id="-gneE549" weight="0.00"/>
        <tazSource id="gneE549.67" weight="0.00"/>
        <tazSink id="gneE549.67" weight="1.00"/>
    </taz>
    <taz id="106" shape="1727.09,732.18 1725.04,663.42 1713.60,663.96 1715.19,732.61 1727.09,732.18" color="blue">
        <tazSource id="-gneE567" weight="1.00"/>
        <tazSink id="-gneE567" weight="0.00"/>
        <tazSource id="gneE567.74" weight="0.00"/>
        <tazSink id="gneE567.74" weight="1.00"/>
    </taz>
    <taz id="107" shape="1682.87,211.97 1681.00,131.85 1693.06,131.45 1693.68,212.08 1682.87,211.97" color="blue">
        <tazSource id="gneE571" weight="1.00"/>
        <tazSink id="gneE571" weight="0.00"/>
        <tazSource id="gneE570" weight="0.00"/>
        <tazSink id="gneE570" weight="1.00"/>
    </taz>
    <taz id="108" shape="1615.62,-91.34 1614.10,-176.01 1601.92,-175.84 1603.58,-90.58 1615.62,-91.34" color="blue">
        <tazSource id="gneE581" weight="1.00"/>
        <tazSink id="gneE581" weight="0.00"/>
        <tazSource id="gneE582.65" weight="0.00"/>
        <tazSink id="gneE582.65" weight="1.00"/>
    </taz>
    <taz id="109" shape="1270.54,-345.63 1374.54,-347.12 1374.03,-337.40 1271.03,-335.23 1270.54,-345.63" color="blue">
        <tazSource id="gneE577" weight="1.00"/>
        <tazSink id="gneE577" weight="0.00"/>
        <tazSource id="gneE576.71" weight="0.00"/>
        <tazSink id="gneE576.71" weight="1.00"/>
    </taz>
    <taz id="11" shape="415.70,757.89 154.47,768.75 148.97,760.26 226.79,645.71 410.66,639.44 415.70,757.89" color="red">
        <tazSource id="gneE520" weight="1.00"/>
        <tazSink id="gneE520" weight="0.00"/>
        <tazSource id="-gneE520" weight="0.00"/>
        <tazSink id="-gneE520" weight="1.00"/>
    </taz>
    <taz id="12" shape="435.02,757.16 544.56,753.12 540.80,631.83 430.72,637.23 435.02,757.16" color="red">
        <tazSource id="gneE272" weight="1.00"/>
        <tazSink id="gneE272" weight="0.00"/>
        <tazSource id="gneE271" weight="0.00"/>
        <tazSink id="gneE271" weight="1.00"/>
    </taz>
    <taz id="13" shape="119.93,535.84 122.38,595.18 150.81,617.95 214.69,615.66 244.49,573.84 243.29,530.32 119.93,535.84" color="red">
        <tazSource id="-gneE447" weight="1.00"/>
        <tazSink id="-gneE447" weight="0.00"/>
        <tazSource id="gneE447" weight="0.00"/>
        <tazSink id="gneE447" weight="1.00"/>
    </taz>
    <taz id="14" shape="307.24,527.06 257.29,600.87 266.71,613.87 409.56,608.81 407.08,546.93 380.02,524.36 307.24,527.06" color="red">
        <tazSource id="gneE276" weight="1.00"/>
        <tazSink id="gneE276" weight="0.00"/>
        <tazSource id="-gneE446" weight="1.00"/>
        <tazSink id="-gneE446" weight="0.00"/>
        <tazSource id="gneE275" weight="0.00"/>
        <tazSink id="gneE275" weight="1.00"/>
        <tazSource id="gneE446" weight="0.00"/>
        <tazSink id="gneE446" weight="1.00"/>
    </taz>
    <taz id="15" shape="429.32,612.32 539.41,607.45 535.90,515.24 426.72,520.08 429.32,612.32" color="red">
        <tazSource id="gneE278" weight="1.00"/>
        <tazSink id="gneE278" weight="0.00"/>
        <tazSource id="gneE277" weight="0.00"/>
        <tazSink id="gneE277" weight="1.00"/>
    </taz>
    <taz id="16" shape="89.84,477.12 -87.85,484.22 -87.38,349.51 -54.70,364.17 -19.56,379.82 -0.85,386.70 21.23,389.63 85.95,387.39 89.84,477.12" color="red">
        <tazSource id="-gneE481" weight="1.00"/>
        <tazSink id="-gneE481" weight="0.00"/>
        <tazSource id="gneE481" weight="0.00"/>
        <tazSink id="gneE481" weight="1.00"/>
    </taz>
    <taz id="17" shape="-11.97,355.91 3.92,362.15 20.92,364.50 84.57,362.32 76.55,190.11 -1.58,128.65 -17.27,152.81 -34.84,182.94 -49.80,212.31 -62.19,240.07 -73.22,273.63 -79.69,301.48 -83.30,323.50 -11.97,355.91" color="red">
        <tazSource id="gneE164.26" weight="1.00"/>
        <tazSink id="gneE164.26" weight="0.00"/>
        <tazSource id="-gneE164" weight="0.00"/>
        <tazSink id="-gneE164" weight="1.00"/>
    </taz>
    <taz id="2" shape="312.04,1004.62 423.50,1001.39 422.09,940.49 393.39,929.65 383.44,935.05 373.85,938.25 364.77,939.71 310.33,941.10 312.04,1004.62" color="red">
        <tazSource id="gneE256" weight="1.00"/>
        <tazSink id="gneE256" weight="0.00"/>
        <tazSource id="gneE255" weight="0.00"/>
        <tazSink id="gneE255" weight="1.00"/>
    </taz>
    <taz id="20" shape="137.97,381.95 113.40,383.63 117.44,475.93 209.16,471.49 207.47,436.18 137.97,381.95" color="red">
        <tazSource id="-gneE480" weight="1.00"/>
        <tazSink id="-gneE480" weight="0.00"/>
        <tazSource id="gneE480" weight="0.00"/>
        <tazSink id="gneE480" weight="1.00"/>
    </taz>
    <taz id="21" shape="201.07,379.12 394.03,371.11 397.14,463.40 311.95,467.33 268.65,434.21 243.22,435.64 201.71,403.64 201.07,379.12" color="red">
        <tazSource id="gneE290" weight="1.00"/>
        <tazSink id="gneE290" weight="0.00"/>
        <tazSource id="gneE289" weight="0.00"/>
        <tazSink id="gneE289" weight="1.00"/>
    </taz>
    <taz id="22" shape="424.20,463.13 532.89,458.40 530.04,367.89 420.92,372.49 424.20,463.13" color="red">
        <tazSource id="-gneE479" weight="1.00"/>
        <tazSink id="-gneE479" weight="0.00"/>
        <tazSource id="gneE479" weight="0.00"/>
        <tazSink id="gneE479" weight="1.00"/>
    </taz>
    <taz id="23" shape="107.84,318.99 109.53,361.03 383.20,349.45 379.52,270.45 306.47,272.63 300.87,263.47 288.30,244.27 183.83,248.47 165.95,245.66 153.56,242.20 140.24,237.03 127.46,228.88 117.50,221.47 102.89,210.64 107.84,318.99" color="red">
        <tazSource id="-gneE513" weight="1.00"/>
        <tazSink id="-gneE513" weight="0.00"/>
        <tazSource id="gneE513" weight="0.00"/>
        <tazSink id="gneE513" weight="1.00"/>
    </taz>
    <taz id="24" shape="416.83,268.77 524.78,264.40 528.79,343.26 419.66,348.01 416.83,268.77" color="red">
        <tazSource id="-gneE471" weight="1.00"/>
        <tazSink id="-gneE471" weight="0.00"/>
        <tazSource id="gneE471" weight="0.00"/>
        <tazSink id="gneE471" weight="1.00"/>
    </taz>
    <taz id="25" shape="-63.00,1022.94 90.76,1012.77 86.89,912.00 54.13,887.58 40.09,875.73 22.27,889.88 5.29,898.20 -10.26,903.16 -22.05,905.10 -35.66,905.85 -67.64,907.28 -63.00,1022.94" color="blue">
        <tazSource id="-gneE496" weight="1.00"/>
        <tazSink id="-gneE496" weight="0.00"/>
        <tazSource id="gneE496" weight="0.00"/>
        <tazSink id="gneE496" weight="1.00"/>
    </taz>
    <taz id="26" shape="-179.01,1030.82 -97.69,1025.60 -102.76,908.90 -184.08,912.12 -179.01,1030.82" color="blue">
        <tazSource id="gneE297" weight="1.00"/>
        <tazSink id="gneE297" weight="0.00"/>
        <tazSource id="-gneE495" weight="1.00"/>
        <tazSink id="-gneE495" weight="0.00"/>
        <tazSource id="gneE495" weight="0.00"/>
        <tazSink id="gneE495" weight="1.00"/>
        <tazSource id="gneE296" weight="0.00"/>
        <tazSink id="gneE296" weight="1.00"/>
    </taz>
    <taz id="27" shape="-185.26,881.95 -104.24,878.49 -108.60,783.04 -189.24,786.08 -185.26,881.95" color="blue">
        <tazSource id="-gneE493" weight="1.00"/>
        <tazSink id="-gneE493" weight="0.00"/>
        <tazSource id="gneE299" weight="1.00"/>
        <tazSink id="gneE299" weight="0.00"/>
        <tazSource id="gneE298" weight="0.00"/>
        <tazSink id="gneE298" weight="1.00"/>
        <tazSource id="gneE493" weight="0.00"/>
        <tazSink id="gneE493" weight="1.00"/>
    </taz>
    <taz id="28" shape="-190.31,761.05 -109.20,757.57 -118.85,542.28 -199.27,545.51 -190.31,761.05" color="blue">
        <tazSource id="-gneE494" weight="1.00"/>
        <tazSink id="-gneE494" weight="0.00"/>
        <tazSource id="-gneE490" weight="1.00"/>
        <tazSink id="-gneE490" weight="0.00"/>
        <tazSource id="-gneE491" weight="1.00"/>
        <tazSink id="-gneE491" weight="0.00"/>
        <tazSource id="gneE494" weight="0.00"/>
        <tazSink id="gneE494" weight="1.00"/>
        <tazSource id="gneE490.44" weight="0.00"/>
        <tazSink id="gneE490.44" weight="1.00"/>
        <tazSource id="gneE491" weight="0.00"/>
        <tazSink id="gneE491" weight="1.00"/>
    </taz>
    <taz id="29" shape="-201.54,485.85 -209.10,299.11 -118.96,332.25 -121.07,358.51 -121.87,386.96 -121.10,482.29 -201.54,485.85" color="blue">
        <tazSource id="-gneE492" weight="1.00"/>
        <tazSink id="-gneE492" weight="0.00"/>
        <tazSource id="gneE303" weight="1.00"/>
        <tazSink id="gneE303" weight="0.00"/>
        <tazSource id="gneE492" weight="0.00"/>
        <tazSink id="gneE492" weight="1.00"/>
        <tazSource id="gneE302" weight="0.00"/>
        <tazSink id="gneE302" weight="1.00"/>
    </taz>
    <taz id="3" shape="443.55,1001.10 555.95,997.94 552.39,898.36 440.51,902.46 443.55,1001.10" color="red">
        <tazSource id="-gneE445" weight="1.00"/>
        <tazSink id="-gneE445" weight="0.00"/>
        <tazSource id="gneE445" weight="0.00"/>
        <tazSink id="gneE445" weight="1.00"/>
    </taz>
    <taz id="30" shape="-210.36,271.56 -115.50,306.54 -108.21,272.78 -103.21,253.88 -98.43,238.29 -89.65,214.50 -143.31,185.68 -157.28,178.77 -169.99,173.44 -178.61,171.09 -188.07,170.08 -214.36,170.92 -210.36,271.56" color="blue">
        <tazSource id="-gneE458" weight="1.00"/>
        <tazSink id="-gneE458" weight="0.00"/>
        <tazSource id="gneE305" weight="1.00"/>
        <tazSink id="gneE305" weight="0.00"/>
        <tazSource id="gneE304" weight="0.00"/>
        <tazSink id="gneE304" weight="1.00"/>
        <tazSource id="gneE458" weight="0.00"/>
        <tazSink id="gneE458" weight="1.00"/>
    </taz>
    <taz id="31" shape="-215.54,145.27 -184.06,144.97 -168.02,148.33 -159.44,150.60 -148.35,154.99 -79.21,191.40 -58.09,153.37 -43.56,130.17 -26.48,104.89 -50.72,85.75 -66.51,75.18 -84.67,66.67 -99.14,62.29 -119.72,58.60 -138.68,58.45 -218.98,59.22 -215.54,145.27" color="blue">
        <tazSource id="-gneE460" weight="1.00"/>
        <tazSink id="-gneE460" weight="0.00"/>
        <tazSource id="-gneE459" weight="1.00"/>
        <tazSink id="-gneE459" weight="0.00"/>
        <tazSource id="gneE307" weight="1.00"/>
        <tazSink id="gneE307" weight="0.00"/>
        <tazSource id="gneE306" weight="0.00"/>
        <tazSink id="gneE306" weight="1.00"/>
        <tazSource id="gneE459" weight="0.00"/>
        <tazSink id="gneE459" weight="1.00"/>
        <tazSource id="gneE460" weight="0.00"/>
        <tazSink id="gneE460" weight="1.00"/>
    </taz>
    <taz id="32" shape="-212.16,15.03 -212.71,-76.93 -76.64,-76.06 -76.45,15.69 -147.82,15.48 -212.16,15.03" color="blue">
        <tazSource id="gneE309" weight="1.00"/>
        <tazSink id="gneE309" weight="0.00"/>
        <tazSource id="-gneE463" weight="1.00"/>
        <tazSink id="-gneE463" weight="0.00"/>
        <tazSource id="gneE308" weight="0.00"/>
        <tazSink id="gneE308" weight="1.00"/>
        <tazSource id="gneE463" weight="0.00"/>
        <tazSink id="gneE463" weight="1.00"/>
    </taz>
    <taz id="33" shape="22.63,92.32 147.21,190.43 163.38,201.56 177.16,206.42 210.80,205.35 520.07,192.90 505.63,167.94 487.22,139.24 464.27,107.95 448.56,89.15 430.04,70.05 417.48,58.92 397.34,44.25 371.29,28.63 354.21,20.34 332.11,11.13 305.71,3.41 279.34,-1.87 253.83,-4.17 224.67,-4.37 193.69,-1.33 168.61,3.34 143.77,10.18 118.76,20.53 93.30,34.04 63.91,52.81 39.59,74.60 22.63,92.32" color="blue">
        <tazSource id="-gneE469" weight="1.00"/>
        <tazSink id="-gneE469" weight="0.00"/>
        <tazSource id="-gneE464" weight="1.00"/>
        <tazSink id="-gneE464" weight="0.00"/>
        <tazSource id="-gneE466" weight="1.00"/>
        <tazSink id="-gneE466" weight="0.00"/>
        <tazSource id="-gneE467" weight="1.00"/>
        <tazSink id="-gneE467" weight="0.00"/>
        <tazSource id="-gneE468" weight="1.00"/>
        <tazSink id="-gneE468" weight="0.00"/>
        <tazSource id="gneE470" weight="1.00"/>
        <tazSink id="gneE470" weight="0.00"/>
        <tazSource id="gneE469" weight="0.00"/>
        <tazSink id="gneE469" weight="1.00"/>
        <tazSource id="gneE464" weight="0.00"/>
        <tazSink id="gneE464" weight="1.00"/>
        <tazSource id="gneE466" weight="0.00"/>
        <tazSink id="gneE466" weight="1.00"/>
        <tazSource id="gneE467" weight="0.00"/>
        <tazSink id="gneE467" weight="1.00"/>
        <tazSource id="gneE468" weight="0.00"/>
        <tazSink id="gneE468" weight="1.00"/>
        <tazSource id="-gneE470" weight="0.00"/>
        <tazSink id="-gneE470" weight="1.00"/>
    </taz>
    <taz id="34" shape="475.33,74.07 510.47,119.57 535.60,159.98 553.00,190.96 672.68,185.98 693.86,171.13 687.55,15.91 585.37,15.57 575.45,16.30 564.13,18.40 548.76,24.86 529.93,36.76 502.81,55.98 475.33,74.07" color="blue">
        <tazSource id="gneE339" weight="1.00"/>
        <tazSink id="gneE339" weight="0.00"/>
        <tazSource id="gneE338" weight="0.00"/>
        <tazSink id="gneE338" weight="1.00"/>
    </taz>
    <taz id="35" shape="565.99,341.96 701.43,336.83 697.39,253.65 562.54,259.92 565.99,341.96" color="blue">
        <tazSource id="-gneE478" weight="1.00"/>
        <tazSink id="-gneE478" weight="0.00"/>
        <tazSource id="gneE478" weight="0.00"/>
        <tazSink id="gneE478" weight="1.00"/>
    </taz>
    <taz id="36" shape="573.07,453.66 705.51,448.25 701.93,359.36 569.71,364.61 573.07,453.66" color="blue">
        <tazSource id="gneE319" weight="1.00"/>
        <tazSink id="gneE319" weight="0.00"/>
        <tazSource id="gneE318" weight="0.00"/>
        <tazSink id="gneE318" weight="1.00"/>
    </taz>
    <taz id="37" shape="712.36,598.08 708.19,508.59 576.03,513.76 579.25,603.38 712.36,598.08" color="blue">
        <tazSource id="gneE317" weight="1.00"/>
        <tazSink id="gneE317" weight="0.00"/>
        <tazSource id="gneE316" weight="0.00"/>
        <tazSink id="gneE316" weight="1.00"/>
    </taz>
    <taz id="38" shape="581.77,745.05 702.71,739.78 698.26,632.05 577.56,637.01 581.77,745.05" color="blue">
        <tazSource id="gneE315" weight="1.00"/>
        <tazSink id="gneE315" weight="0.00"/>
        <tazSource id="-gneE435" weight="1.00"/>
        <tazSink id="-gneE435" weight="0.00"/>
        <tazSource id="gneE435" weight="0.00"/>
        <tazSink id="gneE435" weight="1.00"/>
        <tazSource id="gneE314" weight="0.00"/>
        <tazSink id="gneE314" weight="1.00"/>
    </taz>
    <taz id="39" shape="590.66,875.23 712.12,870.25 708.38,780.58 587.40,785.49 590.66,875.23" color="blue">
        <tazSource id="gneE313" weight="1.00"/>
        <tazSink id="gneE313" weight="0.00"/>
        <tazSource id="-gneE434" weight="1.00"/>
        <tazSink id="-gneE434" weight="0.00"/>
        <tazSource id="gneE434" weight="0.00"/>
        <tazSink id="gneE434" weight="1.00"/>
        <tazSource id="gneE312" weight="0.00"/>
        <tazSink id="gneE312" weight="1.00"/>
    </taz>
    <taz id="4" shape="132.65,872.55 136.27,884.98 141.77,896.25 149.30,905.44 161.55,916.10 173.34,924.77 279.64,922.09 276.79,793.66 142.48,799.99 129.57,802.69 132.65,872.55" color="red">
        <tazSource id="-gneE398" weight="1.00"/>
        <tazSink id="-gneE398" weight="0.00"/>
        <tazSource id="gneE398" weight="0.00"/>
        <tazSink id="gneE398" weight="1.00"/>
    </taz>
    <taz id="40" shape="595.75,978.86 717.50,973.30 714.07,893.45 592.44,899.22 595.75,978.86" color="blue">
        <tazSource id="-gneE431" weight="1.00"/>
        <tazSink id="-gneE431" weight="0.00"/>
        <tazSource id="gneE431" weight="0.00"/>
        <tazSink id="gneE431" weight="1.00"/>
    </taz>
    <taz id="41" shape="759.01,993.31 948.84,990.69 984.21,990.71 1034.29,991.72 1025.88,759.73 750.45,775.55 759.01,993.31" color="blue">
        <tazSource id="-gneE365" weight="1.00"/>
        <tazSink id="-gneE365" weight="0.00"/>
        <tazSource id="gneE510" weight="1.00"/>
        <tazSink id="gneE510" weight="0.00"/>
        <tazSource id="-gneE367" weight="1.00"/>
        <tazSink id="-gneE367" weight="0.00"/>
        <tazSource id="-gneE366" weight="1.00"/>
        <tazSink id="-gneE366" weight="0.00"/>
        <tazSource id="gneE365" weight="0.00"/>
        <tazSink id="gneE365" weight="1.00"/>
        <tazSource id="-gneE510" weight="0.00"/>
        <tazSink id="-gneE510" weight="1.00"/>
        <tazSource id="gneE367" weight="0.00"/>
        <tazSink id="gneE367" weight="1.00"/>
        <tazSource id="gneE366" weight="0.00"/>
        <tazSink id="gneE366" weight="1.00"/>
    </taz>
    <taz id="42" shape="1062.06,989.83 1346.61,1000.49 1335.82,746.96 1052.80,760.13 1062.06,989.83" color="blue">
        <tazSource id="-gneE369" weight="1.00"/>
        <tazSink id="-gneE369" weight="0.00"/>
        <tazSource id="gneE369" weight="0.00"/>
        <tazSink id="gneE369" weight="1.00"/>
    </taz>
    <taz id="43" shape="756.68,701.55 962.41,692.43 944.29,677.39 924.39,657.22 904.88,633.37 889.08,609.93 873.45,578.83 862.57,552.04 855.82,525.99 851.19,503.03 748.33,506.89 756.68,701.55" color="blue">
        <tazSource id="-gneE370" weight="1.00"/>
        <tazSink id="-gneE370" weight="0.00"/>
        <tazSource id="gneE370" weight="0.00"/>
        <tazSink id="gneE370" weight="1.00"/>
    </taz>
    <taz id="44" shape="740.29,449.00 842.57,444.84 845.08,420.52 847.06,407.75 849.87,395.33 853.01,381.78 857.34,368.51 863.69,351.29 871.86,333.04 882.94,312.62 894.54,294.75 910.13,273.95 923.71,258.83 936.43,246.68 731.63,255.07 740.29,449.00" color="blue">
        <tazSource id="-gneE371" weight="1.00"/>
        <tazSink id="-gneE371" weight="0.00"/>
        <tazSource id="gneE371" weight="0.00"/>
        <tazSink id="gneE371" weight="1.00"/>
    </taz>
    <taz id="45" shape="1332.45,674.78 1151.24,682.68 1130.76,682.20 1114.22,680.92 1091.77,676.71 1064.93,668.82 1041.77,658.12 1017.21,643.56 1000.19,630.93 988.62,621.10 973.76,604.76 956.97,582.57 943.08,559.03 933.24,535.10 927.34,514.32 922.90,493.28 920.78,472.64 920.40,454.69 922.47,429.13 925.87,411.30 932.02,390.07 939.20,371.41 949.73,350.20 964.29,327.55 985.35,303.63 1006.79,284.78 1025.06,272.31 1043.71,261.92 1067.05,251.63 1084.31,246.56 1110.98,240.90 1134.76,239.02 1313.85,231.27 1332.45,674.78" color="blue">
        <tazSource id="-gneE589" weight="1.00"/>
        <tazSink id="-gneE589" weight="0.00"/>
        <tazSource id="-gneE587" weight="1.00"/>
        <tazSink id="-gneE587" weight="0.00"/>
        <tazSource id="-gneE362" weight="1.00"/>
        <tazSink id="-gneE362" weight="0.00"/>
        <tazSource id="gneE341" weight="1.00"/>
        <tazSink id="gneE341" weight="0.00"/>
        <tazSource id="-gneE360" weight="1.00"/>
        <tazSink id="-gneE360" weight="0.00"/>
        <tazSource id="-gneE361" weight="1.00"/>
        <tazSink id="-gneE361" weight="0.00"/>
        <tazSource id="gneE343" weight="1.00"/>
        <tazSink id="gneE343" weight="0.00"/>
        <tazSource id="-gneE588" weight="1.00"/>
        <tazSink id="-gneE588" weight="0.00"/>
        <tazSource id="gneE589" weight="0.00"/>
        <tazSink id="gneE589" weight="1.00"/>
        <tazSource id="gneE587" weight="0.00"/>
        <tazSink id="gneE587" weight="1.00"/>
        <tazSource id="gneE362" weight="0.00"/>
        <tazSink id="gneE362" weight="1.00"/>
        <tazSource id="gneE340" weight="0.00"/>
        <tazSink id="gneE340" weight="1.00"/>
        <tazSource id="gneE360" weight="0.00"/>
        <tazSink id="gneE360" weight="1.00"/>
        <tazSource id="gneE361" weight="0.00"/>
        <tazSink id="gneE361" weight="1.00"/>
        <tazSource id="gneE342" weight="0.00"/>
        <tazSink id="gneE342" weight="1.00"/>
        <tazSource id="gneE588" weight="0.00"/>
        <tazSink id="gneE588" weight="1.00"/>
    </taz>
    <taz id="46" shape="1035.79,171.57 1301.73,161.13 1294.95,-55.13 1238.20,-80.84 1025.26,-80.84 1035.79,171.57" color="blue">
        <tazSource id="-gneE357" weight="1.00"/>
        <tazSink id="-gneE357" weight="0.00"/>
        <tazSource id="-gneE356" weight="1.00"/>
        <tazSink id="-gneE356" weight="0.00"/>
        <tazSource id="gneE357" weight="0.00"/>
        <tazSink id="gneE357" weight="1.00"/>
        <tazSource id="gneE356" weight="0.00"/>
        <tazSink id="gneE356" weight="1.00"/>
    </taz>
    <taz id="47" shape="728.68,178.53 737.30,185.16 1005.23,173.44 995.31,-80.72 720.22,-80.71 722.30,23.07 728.68,178.53" color="blue">
        <tazSource id="-gneE352" weight="1.00"/>
        <tazSink id="-gneE352" weight="0.00"/>
        <tazSource id="-gneE353" weight="1.00"/>
        <tazSink id="-gneE353" weight="0.00"/>
        <tazSource id="-gneE354" weight="1.00"/>
        <tazSink id="-gneE354" weight="0.00"/>
        <tazSource id="-gneE355" weight="1.00"/>
        <tazSink id="-gneE355" weight="0.00"/>
        <tazSource id="-gneE351" weight="1.00"/>
        <tazSink id="-gneE351" weight="0.00"/>
        <tazSource id="gneE354" weight="0.00"/>
        <tazSink id="gneE354" weight="1.00"/>
        <tazSource id="gneE355" weight="0.00"/>
        <tazSink id="gneE355" weight="1.00"/>
        <tazSource id="gneE351" weight="0.00"/>
        <tazSink id="gneE351" weight="1.00"/>
        <tazSource id="gneE352" weight="0.00"/>
        <tazSink id="gneE352" weight="1.00"/>
        <tazSource id="gneE353" weight="0.00"/>
        <tazSink id="gneE353" weight="1.00"/>
    </taz>
    <taz id="48" shape="-60.38,33.42 -51.10,37.63 -42.12,42.85 -22.83,56.47 -0.94,73.29 13.56,58.36 27.62,45.17 55.17,23.27 87.79,3.27 117.51,-10.36 142.61,-19.98 172.67,-27.72 190.43,-30.88 210.71,-33.12 231.73,-33.99 256.68,-33.77 282.60,-30.83 304.93,-26.80 328.29,-20.71 350.57,-13.07 373.11,-3.31 396.83,9.21 417.73,22.75 429.11,30.78 442.17,41.80 457.63,55.58 511.71,19.38 533.85,4.48 547.03,-1.84 558.10,-5.93 568.72,-7.90 587.28,-9.35 686.57,-9.20 686.11,-82.20 -60.98,-84.74 -60.38,33.42" color="blue">
        <tazSource id="-gneE462" weight="1.00"/>
        <tazSink id="-gneE462" weight="0.00"/>
        <tazSource id="-gneE465" weight="1.00"/>
        <tazSink id="-gneE465" weight="0.00"/>
        <tazSource id="gneE462" weight="0.00"/>
        <tazSink id="gneE462" weight="1.00"/>
        <tazSource id="gneE465" weight="0.00"/>
        <tazSink id="gneE465" weight="1.00"/>
    </taz>
    <taz id="49" shape="-374.31,28.33 -260.33,26.98 -264.93,-85.67 -380.88,-85.59 -374.31,28.33" color="blue">
        <tazSource id="gneE327" weight="1.00"/>
        <tazSink id="gneE327" weight="0.00"/>
        <tazSource id="gneE6" weight="1.00"/>
        <tazSink id="gneE6" weight="0.00"/>
        <tazSource id="gneE326" weight="0.00"/>
        <tazSink id="gneE326" weight="1.00"/>
        <tazSource id="-gneE6" weight="0.00"/>
        <tazSink id="-gneE6" weight="1.00"/>
    </taz>
    <taz id="5" shape="306.37,792.32 309.94,921.02 362.52,919.84 375.64,916.65 388.56,908.85 398.98,900.63 406.38,892.09 412.53,887.54 420.48,884.53 416.99,788.15 306.37,792.32" color="red">
        <tazSource id="-gneE397" weight="1.00"/>
        <tazSink id="-gneE397" weight="0.00"/>
        <tazSource id="-gneE396" weight="1.00"/>
        <tazSink id="-gneE396" weight="0.00"/>
        <tazSource id="gneE397" weight="0.00"/>
        <tazSink id="gneE397" weight="1.00"/>
        <tazSource id="gneE396" weight="0.00"/>
        <tazSink id="gneE396" weight="1.00"/>
    </taz>
    <taz id="50" shape="-369.27,148.53 -255.44,146.36 -259.32,51.98 -373.29,53.04 -369.27,148.53" color="blue">
        <tazSource id="gneE6" weight="1.00"/>
        <tazSink id="gneE6" weight="0.00"/>
        <tazSource id="-gneE166" weight="1.00"/>
        <tazSink id="-gneE166" weight="0.00"/>
        <tazSource id="-gneE6" weight="0.00"/>
        <tazSink id="-gneE6" weight="1.00"/>
        <tazSource id="gneE166" weight="0.00"/>
        <tazSink id="gneE166" weight="1.00"/>
    </taz>
    <taz id="51" shape="-365.55,269.58 -250.59,265.80 -254.44,171.44 -369.32,173.78 -365.55,269.58" color="blue">
        <tazSource id="-gneE166" weight="1.00"/>
        <tazSink id="-gneE166" weight="0.00"/>
        <tazSource id="-gneE128" weight="1.00"/>
        <tazSink id="-gneE128" weight="0.00"/>
        <tazSource id="gneE166" weight="0.00"/>
        <tazSink id="gneE166" weight="1.00"/>
        <tazSource id="gneE128" weight="0.00"/>
        <tazSink id="gneE128" weight="1.00"/>
    </taz>
    <taz id="52" shape="-359.95,409.38 -241.96,478.92 -249.50,290.92 -364.61,294.39 -359.95,409.38" color="blue">
        <tazSource id="gneE129" weight="1.00"/>
        <tazSink id="gneE129" weight="0.00"/>
        <tazSource id="-gneE129" weight="0.00"/>
        <tazSink id="-gneE129" weight="1.00"/>
    </taz>
    <taz id="53" shape="-345.74,771.69 -231.76,766.80 -239.77,556.00 -351.86,623.36 -345.49,766.12 -345.74,771.69" color="blue">
        <tazSource id="-gneE452" weight="1.00"/>
        <tazSink id="-gneE452" weight="0.00"/>
        <tazSource id="gneE452" weight="0.00"/>
        <tazSink id="gneE452" weight="1.00"/>
    </taz>
    <taz id="54" shape="-301.58,895.24 -226.72,890.99 -230.63,784.47 -340.43,789.54 -301.58,895.24" color="blue">
        <tazSource id="gneE139" weight="1.00"/>
        <tazSink id="gneE139" weight="0.00"/>
        <tazSource id="-gneE138" weight="1.00"/>
        <tazSink id="-gneE138" weight="0.00"/>
        <tazSource id="-gneE139" weight="0.00"/>
        <tazSink id="-gneE139" weight="1.00"/>
        <tazSource id="gneE138" weight="0.00"/>
        <tazSink id="gneE138" weight="1.00"/>
    </taz>
    <taz id="55" shape="-289.74,1042.28 -220.98,1037.97 -225.51,915.72 -296.14,919.58 -289.74,1042.28" color="blue">
        <tazSource id="-gneE499" weight="1.00"/>
        <tazSink id="-gneE499" weight="0.00"/>
        <tazSource id="-gneE138" weight="1.00"/>
        <tazSink id="-gneE138" weight="0.00"/>
        <tazSource id="gneE499" weight="0.00"/>
        <tazSink id="gneE499" weight="1.00"/>
        <tazSource id="gneE138" weight="0.00"/>
        <tazSink id="gneE138" weight="1.00"/>
    </taz>
    <taz id="6" shape="440.16,882.33 551.76,878.10 547.83,782.07 436.13,786.90 440.16,882.33" color="red">
        <tazSource id="gneE264" weight="1.00"/>
        <tazSink id="gneE264" weight="0.00"/>
        <tazSource id="gneE263" weight="0.00"/>
        <tazSink id="gneE263" weight="1.00"/>
    </taz>