<?xml version="1.0" encoding="UTF-8"?>

<!-- generated on 12/07/20 04:47:32 by Eclipse SUMO od2trips Version 1.8.0
<configuration xmlns:xsi="http://www.w3.org/2001/XMLSchema-instance" xsi:noNamespaceSchemaLocation="http://sumo.dlr.de/xsd/od2tripsConfiguration.xsd">

    <input>
        <taz-files value="D:\MEGA\Greenline\Greenline_sumo\greenline_OD\taz.add.xml"/>
        <od-amitran-files value="D:\MEGA\Greenline\Greenline_sumo\greenline_OD\input_od.xml"/>
    </input>

    <output>
        <output-file value="D:\MEGA\Greenline\Greenline_sumo\greenline_OD\trips.trips.xml"/>
    </output>

    <processing>
        <vtype value="10"/>
    </processing>

    <report>
        <verbose value="true"/>
    </report>

</configuration>
-->

<routes xmlns:xsi="http://www.w3.org/2001/XMLSchema-instance" xsi:noNamespaceSchemaLocation="http://sumo.dlr.de/xsd/routes_file.xsd">
    <trip id="144" depart="2.36" from="gneE44" to="gneE296" type="0" fromTaz="102" toTaz="26" departLane="free" departSpeed="max"/>
    <trip id="516" depart="2.75" from="gneE240" to="gneE275" type="0" fromTaz="105" toTaz="14" departLane="free" departSpeed="max"/>
    <trip id="2316" depart="3.69" from="gneE307" to="gneE17" type="0" fromTaz="31" toTaz="109" departLane="free" departSpeed="max"/>
    <trip id="2859" depart="4.33" from="gneE260" to="-gneE27" type="0" fromTaz="4" toTaz="107" departLane="free" departSpeed="max"/>
    <trip id="1717" depart="9.34" from="gneE331" to="-gneE27" type="0" fromTaz="24" toTaz="107" departLane="free" departSpeed="max"/>
    <trip id="1609" depart="10.16" from="gneE251" to="-gneE7" type="0" fromTaz="22" toTaz="104" departLane="free" departSpeed="max"/>
    <trip id="2109" depart="10.87" from="gneE258" to="gneE241" type="0" fromTaz="3" toTaz="105" departLane="free" departSpeed="max"/>
    <trip id="219" depart="11.12" from="gneE179" to="gneE330" type="0" fromTaz="103" toTaz="24" departLane="free" departSpeed="max"/>
    <trip id="2493" depart="11.33" from="gneE319" to="-gneE179" type="0" fromTaz="36" toTaz="103" departLane="free" departSpeed="max"/>
    <trip id="1315" depart="11.98" from="gneE284" to="-gneE56" type="0" fromTaz="18" toTaz="101" departLane="free" departSpeed="max"/>
    <trip id="1875" depart="14.71" from="gneE299" to="-gneE56" type="0" fromTaz="27" toTaz="101" departLane="free" departSpeed="max"/>
    <trip id="2396" depart="15.90" from="gneE339" to="gneE241" type="0" fromTaz="34" toTaz="105" departLane="free" departSpeed="max"/>
    <trip id="1244" depart="16.08" from="gneE278" to="gneE17" type="0" fromTaz="15" toTaz="109" departLane="free" departSpeed="max"/>
    <trip id="686" depart="18.97" from="gneE20" to="gneE312" type="0" fromTaz="106" toTaz="39" departLane="free" departSpeed="max"/>
    <trip id="1476" depart="21.76" from="gneE290" to="-gneE44" type="0" fromTaz="21" toTaz="102" departLane="free" departSpeed="max"/>
    <trip id="992" depart="22.28" from="gneE272" to="gneE17" type="0" fromTaz="12" toTaz="109" departLane="free" departSpeed="max"/>
    <trip id="1046" depart="23.89" from="gneE274" to="-gneE20" type="0" fromTaz="13" toTaz="106" departLane="free" departSpeed="max"/>
    <trip id="574" depart="24.98" from="gneE240" to="gneE261" type="0" fromTaz="105" toTaz="5" departLane="free" departSpeed="max"/>
    <trip id="3123" depart="25.12" from="gneE266" to="-gneE20" type="0" fromTaz="8" toTaz="106" departLane="free" departSpeed="max"/>
    <trip id="1647" depart="25.86" from="gneE251" to="-gneE27" type="0" fromTaz="22" toTaz="107" departLane="free" departSpeed="max"/>
    <trip id="2640" depart="26.01" from="gneE315" to="-gneE56" type="0" fromTaz="38" toTaz="101" departLane="free" departSpeed="max"/>
    <trip id="55" depart="27.48" from="gneE270" to="-gneE179" type="0" fromTaz="10" toTaz="103" departLane="free" departSpeed="max"/>
    <trip id="1847" depart="32.84" from="gneE297" to="-gneE20" type="0" fromTaz="26" toTaz="106" departLane="free" departSpeed="max"/>
    <trip id="618" depart="33.54" from="gneE20" to="gneE287" type="0" fromTaz="106" toTaz="20" departLane="free" departSpeed="max"/>
    <trip id="1624" depart="35.00" from="gneE251" to="gneE241" type="0" fromTaz="22" toTaz="105" departLane="free" departSpeed="max"/>
    <trip id="1165" depart="35.56" from="gneE278" to="-gneE44" type="0" fromTaz="15" toTaz="102" departLane="free" departSpeed="max"/>
    <trip id="2842" depart="36.22" from="gneE260" to="-gneE20" type="0" fromTaz="4" toTaz="106" departLane="free" departSpeed="max"/>
    <trip id="1185" depart="36.35" from="gneE278" to="-gneE7" type="0" fromTaz="15" toTaz="104" departLane="free" departSpeed="max"/>
    <trip id="2220" depart="37.22" from="gneE305" to="-gneE7" type="0" fromTaz="30" toTaz="104" departLane="free" departSpeed="max"/>
    <trip id="2810" depart="37.59" from="gneE260" to="-gneE7" type="0" fromTaz="4" toTaz="104" departLane="free" departSpeed="max"/>
    <trip id="476" depart="37.74" from="gneE7" to="gneE259" type="0" fromTaz="104" toTaz="4" departLane="free" departSpeed="max"/>
    <trip id="2459" depart="39.14" from="gneE321" to="-gneE27" type="0" fromTaz="35" toTaz="107" departLane="free" departSpeed="max"/>
    <trip id="1305" depart="44.99" from="gneE282" to="-gneE27" type="0" fromTaz="17" toTaz="107" departLane="free" departSpeed="max"/>
    <trip id="2692" depart="46.85" from="gneE315" to="-gneE27" type="0" fromTaz="38" toTaz="107" departLane="free" departSpeed="max"/>
    <trip id="873" depart="48.37" from="-gneE17" to="gneE318" type="0" fromTaz="109" toTaz="36" departLane="free" departSpeed="max"/>
    <trip id="1142" depart="49.05" from="gneE276" to="-gneE27" type="0" fromTaz="14" toTaz="107" departLane="free" departSpeed="max"/>
    <trip id="2196" depart="49.22" from="gneE258" to="gneE17" type="0" fromTaz="3" toTaz="109" departLane="free" departSpeed="max"/>
    <trip id="2725" depart="49.53" from="gneE313" to="-gneE7" type="0" fromTaz="39" toTaz="104" departLane="free" departSpeed="max"/>
    <trip id="1919" depart="49.85" from="gneE301" to="-gneE179" type="0" fromTaz="28" toTaz="103" departLane="free" departSpeed="max"/>
    <trip id="2696" depart="49.86" from="gneE315" to="-gneE27" type="0" fromTaz="38" toTaz="107" departLane="free" departSpeed="max"/>
    <trip id="2400" depart="50.82" from="gneE339" to="-gneE20" type="0" fromTaz="34" toTaz="106" departLane="free" departSpeed="max"/>
    <trip id="1334" depart="51.33" from="gneE284" to="-gneE7" type="0" fromTaz="18" toTaz="104" departLane="free" departSpeed="max"/>
    <trip id="1413" depart="51.87" from="gneE286" to="-gneE27" type="0" fromTaz="19" toTaz="107" departLane="free" departSpeed="max"/>
    <trip id="2945" depart="52.03" from="gneE262" to="-gneE7" type="0" fromTaz="5" toTaz="104" departLane="free" departSpeed="max"/>
    <trip id="1215" depart="52.49" from="gneE278" to="-gneE20" type="0" fromTaz="15" toTaz="106" departLane="free" departSpeed="max"/>
    <trip id="1552" depart="53.94" from="gneE290" to="-gneE27" type="0" fromTaz="21" toTaz="107" departLane="free" departSpeed="max"/>
    <trip id="1222" depart="55.39" from="gneE278" to="-gneE27" type="0" fromTaz="15" toTaz="107" departLane="free" departSpeed="max"/>
    <trip id="5" depart="55.65" from="gneE253" to="-gneE44" type="0" fromTaz="1" toTaz="102" departLane="free" departSpeed="max"/>
    <trip id="2628" depart="55.81" from="gneE317" to="gneE64" type="0" fromTaz="37" toTaz="108" departLane="free" departSpeed="max"/>
    <trip id="867" depart="57.01" from="-gneE17" to="gneE308" type="0" fromTaz="109" toTaz="32" departLane="free" departSpeed="max"/>
    <trip id="412" depart="58.23" from="gneE7" to="gneE304" type="0" fromTaz="104" toTaz="30" departLane="free" departSpeed="max"/>
    <trip id="2571" depart="58.71" from="gneE317" to="-gneE179" type="0" fromTaz="37" toTaz="103" departLane="free" departSpeed="max"/>
    <trip id="3166" depart="58.83" from="gneE268" to="-gneE7" type="0" fromTaz="9" toTaz="104" departLane="free" departSpeed="max"/>
    <trip id="954" depart="59.07" from="gneE272" to="-gneE20" type="0" fromTaz="12" toTaz="106" departLane="free" departSpeed="max"/>
    <trip id="698" depart="63.32" from="gneE20" to="gneE261" type="0" fromTaz="106" toTaz="5" departLane="free" departSpeed="max"/>
    <trip id="2039" depart="64.13" from="gneE303" to="gneE64" type="0" fromTaz="29" toTaz="108" departLane="free" departSpeed="max"/>
    <trip id="805" depart="67.30" from="-gneE64" to="gneE320" type="0" fromTaz="108" toTaz="35" departLane="free" departSpeed="max"/>
    <trip id="1849" depart="68.70" from="gneE297" to="-gneE20" type="0" fromTaz="26" toTaz="106" departLane="free" departSpeed="max"/>
    <trip id="2127" depart="69.62" from="gneE258" to="-gneE20" type="0" fromTaz="3" toTaz="106" departLane="free" departSpeed="max"/>
    <trip id="979" depart="72.86" from="gneE272" to="gneE64" type="0" fromTaz="12" toTaz="108" departLane="free" departSpeed="max"/>
    <trip id="541" depart="73.98" from="gneE240" to="gneE296" type="0" fromTaz="105" toTaz="26" departLane="free" departSpeed="max"/>
    <trip id="2861" depart="74.14" from="gneE260" to="-gneE27" type="0" fromTaz="4" toTaz="107" departLane="free" departSpeed="max"/>
    <trip id="2391" depart="74.54" from="gneE339" to="-gneE7" type="0" fromTaz="34" toTaz="104" departLane="free" departSpeed="max"/>
    <trip id="650" depart="76.05" from="gneE20" to="gneE257" type="0" fromTaz="106" toTaz="3" departLane="free" departSpeed="max"/>
    <trip id="2221" depart="77.29" from="gneE305" to="-gneE7" type="0" fromTaz="30" toTaz="104" departLane="free" departSpeed="max"/>
    <trip id="380" depart="77.89" from="gneE7" to="gneE300" type="0" fromTaz="104" toTaz="28" departLane="free" departSpeed="max"/>
    <trip id="471" depart="80.11" from="gneE7" to="gneE259" type="0" fromTaz="104" toTaz="4" departLane="free" departSpeed="max"/>
    <trip id="2465" depart="80.18" from="gneE321" to="-gneE27" type="0" fromTaz="35" toTaz="107" departLane="free" departSpeed="max"/>
    <trip id="1638" depart="85.62" from="gneE251" to="-gneE20" type="0" fromTaz="22" toTaz="106" departLane="free" departSpeed="max"/>
    <trip id="1712" depart="86.41" from="gneE331" to="-gneE20" type="0" fromTaz="24" toTaz="106" departLane="free" departSpeed="max"/>
    <trip id="630" depart="89.32" from="gneE20" to="gneE330" type="0" fromTaz="106" toTaz="24" departLane="free" departSpeed="max"/>
    <trip id="477" depart="89.91" from="gneE7" to="gneE259" type="0" fromTaz="104" toTaz="4" departLane="free" departSpeed="max"/>
    <trip id="338" depart="90.56" from="gneE7" to="gneE289" type="0" fromTaz="104" toTaz="21" departLane="free" departSpeed="max"/>
    <trip id="1576" depart="90.97" from="gneE290" to="gneE17" type="0" fromTaz="21" toTaz="109" departLane="free" departSpeed="max"/>
    <trip id="822" depart="92.51" from="-gneE17" to="gneE273" type="0" fromTaz="109" toTaz="13" departLane="free" departSpeed="max"/>
    <trip id="3136" depart="92.85" from="gneE266" to="-gneE27" type="0" fromTaz="8" toTaz="107" departLane="free" departSpeed="max"/>
    <trip id="1259" depart="94.16" from="gneE280" to="-gneE7" type="0" fromTaz="16" toTaz="104" departLane="free" departSpeed="max"/>
    <trip id="2525" depart="94.22" from="gneE319" to="-gneE20" type="0" fromTaz="36" toTaz="106" departLane="free" departSpeed="max"/>
    <trip id="157" depart="94.84" from="gneE44" to="gneE304" type="0" fromTaz="102" toTaz="30" departLane="free" departSpeed="max"/>
    <trip id="829" depart="95.90" from="-gneE17" to="gneE277" type="0" fromTaz="109" toTaz="15" departLane="free" departSpeed="max"/>
    <trip id="919" depart="96.84" from="gneE272" to="-gneE7" type="0" fromTaz="12" toTaz="104" departLane="free" departSpeed="max"/>
    <trip id="2817" depart="97.49" from="gneE260" to="-gneE7" type="0" fromTaz="4" toTaz="104" departLane="free" departSpeed="max"/>
    <trip id="795" depart="98.80" from="-gneE64" to="gneE252" type="0" fromTaz="108" toTaz="22" departLane="free" departSpeed="max"/>
    <trip id="1275" depart="100.27" from="gneE280" to="gneE64" type="0" fromTaz="16" toTaz="108" departLane="free" departSpeed="max"/>
    <trip id="86" depart="100.63" from="gneE270" to="gneE64" type="0" fromTaz="10" toTaz="108" departLane="free" departSpeed="max"/>
    <trip id="2495" depart="101.80" from="gneE319" to="-gneE7" type="0" fromTaz="36" toTaz="104" departLane="free" departSpeed="max"/>
    <trip id="1778" depart="103.47" from="gneE295" to="-gneE20" type="0" fromTaz="25" toTaz="106" departLane="free" departSpeed="max"/>
    <trip id="1509" depart="103.83" from="gneE290" to="gneE241" type="0" fromTaz="21" toTaz="105" departLane="free" departSpeed="max"/>
    <trip id="2623" depart="104.22" from="gneE317" to="gneE64" type="0" fromTaz="37" toTaz="108" departLane="free" departSpeed="max"/>
    <trip id="2129" depart="104.93" from="gneE258" to="-gneE20" type="0" fromTaz="3" toTaz="106" departLane="free" departSpeed="max"/>
    <trip id="468" depart="105.18" from="gneE7" to="gneE312" type="0" fromTaz="104" toTaz="39" departLane="free" departSpeed="max"/>
    <trip id="3172" depart="105.24" from="gneE268" to="-gneE20" type="0" fromTaz="9" toTaz="106" departLane="free" departSpeed="max"/>
    <trip id="2916" depart="108.17" from="gneE311" to="gneE64" type="0" fromTaz="40" toTaz="108" departLane="free" departSpeed="max"/>
    <trip id="1878" depart="108.20" from="gneE299" to="-gneE179" type="0" fromTaz="27" toTaz="103" departLane="free" departSpeed="max"/>
    <trip id="3036" depart="108.26" from="gneE292" to="gneE241" type="0" fromTaz="7" toTaz="105" departLane="free" departSpeed="max"/>
    <trip id="793" depart="108.86" from="-gneE64" to="gneE285" type="0" fromTaz="108" toTaz="19" departLane="free" departSpeed="max"/>
    <trip id="349" depart="109.27" from="gneE7" to="gneE252" type="0" fromTaz="104" toTaz="22" departLane="free" departSpeed="max"/>
    <trip id="2260" depart="114.50" from="gneE307" to="-gneE44" type="0" fromTaz="31" toTaz="102" departLane="free" departSpeed="max"/>
    <trip id="335" depart="114.89" from="gneE7" to="gneE287" type="0" fromTaz="104" toTaz="20" departLane="free" departSpeed="max"/>
    <trip id="1342" depart="119.54" from="gneE284" to="gneE241" type="0" fromTaz="18" toTaz="105" departLane="free" departSpeed="max"/>
    <trip id="2125" depart="119.97" from="gneE258" to="-gneE20" type="0" fromTaz="3" toTaz="106" departLane="free" departSpeed="max"/>
    <trip id="868" depart="120.35" from="-gneE17" to="gneE338" type="0" fromTaz="109" toTaz="34" departLane="free" departSpeed="max"/>
    <trip id="1635" depart="121.44" from="gneE251" to="-gneE20" type="0" fromTaz="22" toTaz="106" departLane="free" departSpeed="max"/>
    <trip id="857" depart="122.89" from="-gneE17" to="gneE257" type="0" fromTaz="109" toTaz="3" departLane="free" departSpeed="max"/>
    <trip id="718" depart="123.04" from="gneE27" to="gneE275" type="0" fromTaz="107" toTaz="14" departLane="free" departSpeed="max"/>
    <trip id="1941" depart="123.20" from="gneE301" to="gneE241" type="0" fromTaz="28" toTaz="105" departLane="free" departSpeed="max"/>
    <trip id="923" depart="125.00" from="gneE272" to="-gneE7" type="0" fromTaz="12" toTaz="104" departLane="free" departSpeed="max"/>
    <trip id="2454" depart="127.11" from="gneE321" to="-gneE20" type="0" fromTaz="35" toTaz="106" departLane="free" departSpeed="max"/>
    <trip id="854" depart="127.28" from="-gneE17" to="gneE300" type="0" fromTaz="109" toTaz="28" departLane="free" departSpeed="max"/>
    <trip id="1670" depart="127.90" from="gneE251" to="gneE17" type="0" fromTaz="22" toTaz="109" departLane="free" departSpeed="max"/>
    <trip id="1460" depart="128.15" from="gneE288" to="-gneE27" type="0" fromTaz="20" toTaz="107" departLane="free" departSpeed="max"/>
    <trip id="1398" depart="128.61" from="gneE286" to="gneE241" type="0" fromTaz="19" toTaz="105" departLane="free" departSpeed="max"/>
    <trip id="329" depart="130.11" from="gneE7" to="gneE285" type="0" fromTaz="104" toTaz="19" departLane="free" departSpeed="max"/>
    <trip id="2057" depart="133.86" from="gneE258" to="-gneE44" type="0" fromTaz="3" toTaz="102" departLane="free" departSpeed="max"/>
    <trip id="2063" depart="135.95" from="gneE258" to="-gneE179" type="0" fromTaz="3" toTaz="103" departLane="free" departSpeed="max"/>
    <trip id="1526" depart="136.02" from="gneE290" to="gneE241" type="0" fromTaz="21" toTaz="105" departLane="free" departSpeed="max"/>
    <trip id="2620" depart="136.05" from="gneE317" to="-gneE27" type="0" fromTaz="37" toTaz="107" departLane="free" departSpeed="max"/>
    <trip id="2804" depart="137.45" from="gneE260" to="-gneE7" type="0" fromTaz="4" toTaz="104" departLane="free" departSpeed="max"/>
    <trip id="833" depart="138.74" from="-gneE17" to="gneE283" type="0" fromTaz="109" toTaz="18" departLane="free" departSpeed="max"/>
    <trip id="2821" depart="143.44" from="gneE260" to="gneE241" type="0" fromTaz="4" toTaz="105" departLane="free" departSpeed="max"/>
    <trip id="1456" depart="146.43" from="gneE288" to="-gneE27" type="0" fromTaz="20" toTaz="107" departLane="free" departSpeed="max"/>
    <trip id="364" depart="146.94" from="gneE7" to="gneE294" type="0" fromTaz="104" toTaz="25" departLane="free" departSpeed="max"/>
    <trip id="535" depart="149.02" from="gneE240" to="gneE252" type="0" fromTaz="105" toTaz="22" departLane="free" departSpeed="max"/>
    <trip id="287" depart="150.40" from="gneE7" to="gneE271" type="0" fromTaz="104" toTaz="12" departLane="free" departSpeed="max"/>
    <trip id="1076" depart="150.91" from="gneE276" to="-gneE56" type="0" fromTaz="14" toTaz="101" departLane="free" departSpeed="max"/>
    <trip id="1432" depart="154.88" from="gneE286" to="gneE17" type="0" fromTaz="19" toTaz="109" departLane="free" departSpeed="max"/>
    <trip id="1845" depart="158.29" from="gneE297" to="-gneE20" type="0" fromTaz="26" toTaz="106" departLane="free" departSpeed="max"/>
    <trip id="1730" depart="159.39" from="gneE331" to="gneE17" type="0" fromTaz="24" toTaz="109" departLane="free" departSpeed="max"/>
    <trip id="902" depart="161.60" from="gneE272" to="-gneE44" type="0" fromTaz="12" toTaz="102" departLane="free" departSpeed="max"/>
    <trip id="746" depart="161.76" from="gneE27" to="gneE300" type="0" fromTaz="107" toTaz="28" departLane="free" departSpeed="max"/>
    <trip id="3134" depart="162.24" from="gneE266" to="-gneE27" type="0" fromTaz="8" toTaz="107" departLane="free" departSpeed="max"/>
    <trip id="17" depart="163.02" from="gneE253" to="-gneE7" type="0" fromTaz="1" toTaz="104" departLane="free" departSpeed="max"/>
    <trip id="2751" depart="163.13" from="gneE313" to="-gneE20" type="0" fromTaz="39" toTaz="106" departLane="free" departSpeed="max"/>
    <trip id="2473" depart="163.70" from="gneE321" to="gneE17" type="0" fromTaz="35" toTaz="109" departLane="free" departSpeed="max"/>
    <trip id="2646" depart="163.83" from="gneE315" to="-gneE44" type="0" fromTaz="38" toTaz="102" departLane="free" departSpeed="max"/>
    <trip id="2653" depart="164.21" from="gneE315" to="-gneE179" type="0" fromTaz="38" toTaz="103" departLane="free" departSpeed="max"/>
    <trip id="2278" depart="168.45" from="gneE307" to="-gneE7" type="0" fromTaz="31" toTaz="104" departLane="free" departSpeed="max"/>
    <trip id="1349" depart="168.69" from="gneE284" to="-gneE20" type="0" fromTaz="18" toTaz="106" departLane="free" departSpeed="max"/>
    <trip id="2243" depart="168.94" from="gneE305" to="-gneE27" type="0" fromTaz="30" toTaz="107" departLane="free" departSpeed="max"/>
    <trip id="1558" depart="169.37" from="gneE290" to="-gneE27" type="0" fromTaz="21" toTaz="107" departLane="free" departSpeed="max"/>
    <trip id="84" depart="169.75" from="gneE270" to="-gneE27" type="0" fromTaz="10" toTaz="107" departLane="free" departSpeed="max"/>
    <trip id="3088" depart="169.93" from="gneE266" to="-gneE179" type="0" fromTaz="8" toTaz="103" departLane="free" departSpeed="max"/>
    <trip id="201" depart="170.05" from="gneE179" to="gneE275" type="0" fromTaz="103" toTaz="14" departLane="free" departSpeed="max"/>
    <trip id="1566" depart="170.39" from="gneE290" to="gneE64" type="0" fromTaz="21" toTaz="108" departLane="free" departSpeed="max"/>
    <trip id="369" depart="171.44" from="gneE7" to="gneE294" type="0" fromTaz="104" toTaz="25" departLane="free" departSpeed="max"/>
    <trip id="1631" depart="171.46" from="gneE251" to="-gneE20" type="0" fromTaz="22" toTaz="106" departLane="free" departSpeed="max"/>
    <trip id="2743" depart="174.20" from="gneE313" to="gneE241" type="0" fromTaz="39" toTaz="105" departLane="free" departSpeed="max"/>
    <trip id="956" depart="179.28" from="gneE272" to="-gneE20" type="0" fromTaz="12" toTaz="106" departLane="free" departSpeed="max"/>
    <trip id="2070" depart="179.79" from="gneE258" to="-gneE179" type="0" fromTaz="3" toTaz="103" departLane="free" departSpeed="max"/>
    <trip id="2050" depart="179.79" from="gneE258" to="-gneE56" type="0" fromTaz="3" toTaz="101" departLane="free" departSpeed="max"/>
    <trip id="2257" depart="180.41" from="gneE307" to="-gneE56" type="0" fromTaz="31" toTaz="101" departLane="free" departSpeed="max"/>
    <trip id="1518" depart="181.97" from="gneE290" to="gneE241" type="0" fromTaz="21" toTaz="105" departLane="free" departSpeed="max"/>
    <trip id="419" depart="182.42" from="gneE7" to="gneE306" type="0" fromTaz="104" toTaz="31" departLane="free" departSpeed="max"/>
    <trip id="926" depart="185.27" from="gneE272" to="-gneE7" type="0" fromTaz="12" toTaz="104" departLane="free" departSpeed="max"/>
    <trip id="1013" depart="186.49" from="gneE274" to="-gneE179" type="0" fromTaz="13" toTaz="103" departLane="free" departSpeed="max"/>
    <trip id="2357" depart="187.26" from="gneE309" to="-gneE20" type="0" fromTaz="32" toTaz="106" departLane="free" departSpeed="max"/>
    <trip id="1012" depart="187.95" from="gneE274" to="-gneE179" type="0" fromTaz="13" toTaz="103" departLane="free" departSpeed="max"/>
    <trip id="42" depart="188.13" from="gneE253" to="gneE64" type="0" fromTaz="1" toTaz="108" departLane="free" departSpeed="max"/>
    <trip id="2959" depart="188.75" from="gneE262" to="gneE241" type="0" fromTaz="5" toTaz="105" departLane="free" departSpeed="max"/>
    <trip id="3058" depart="189.46" from="gneE292" to="-gneE27" type="0" fromTaz="7" toTaz="107" departLane="free" departSpeed="max"/>
    <trip id="1915" depart="189.74" from="gneE301" to="-gneE179" type="0" fromTaz="28" toTaz="103" departLane="free" departSpeed="max"/>
    <trip id="3082" depart="191.17" from="gneE266" to="-gneE179" type="0" fromTaz="8" toTaz="103" departLane="free" departSpeed="max"/>
    <trip id="2843" depart="192.98" from="gneE260" to="-gneE20" type="0" fromTaz="4" toTaz="106" departLane="free" departSpeed="max"/>
    <trip id="1695" depart="193.05" from="gneE331" to="gneE241" type="0" fromTaz="24" toTaz="105" departLane="free" departSpeed="max"/>
    <trip id="2908" depart="193.97" from="gneE311" to="-gneE20" type="0" fromTaz="40" toTaz="106" departLane="free" departSpeed="max"/>
    <trip id="3097" depart="196.98" from="gneE266" to="-gneE7" type="0" fromTaz="8" toTaz="104" departLane="free" departSpeed="max"/>
    <trip id="2927" depart="197.45" from="gneE262" to="-gneE56" type="0" fromTaz="5" toTaz="101" departLane="free" departSpeed="max"/>
    <trip id="2994" depart="199.14" from="gneE262" to="-gneE27" type="0" fromTaz="5" toTaz="107" departLane="free" departSpeed="max"/>
    <trip id="463" depart="200.43" from="gneE7" to="gneE312" type="0" fromTaz="104" toTaz="39" departLane="free" departSpeed="max"/>
    <trip id="2285" depart="201.22" from="gneE307" to="gneE241" type="0" fromTaz="31" toTaz="105" departLane="free" departSpeed="max"/>
    <trip id="444" depart="201.49" from="gneE7" to="gneE318" type="0" fromTaz="104" toTaz="36" departLane="free" departSpeed="max"/>
    <trip id="578" depart="202.67" from="gneE240" to="gneE265" type="0" fromTaz="105" toTaz="8" departLane="free" departSpeed="max"/>
    <trip id="1806" depart="204.31" from="gneE295" to="gneE17" type="0" fromTaz="25" toTaz="109" departLane="free" departSpeed="max"/>
    <trip id="2769" depart="204.65" from="gneE313" to="gneE64" type="0" fromTaz="39" toTaz="108" departLane="free" departSpeed="max"/>
    <trip id="3007" depart="204.83" from="gneE262" to="gneE17" type="0" fromTaz="5" toTaz="109" departLane="free" departSpeed="max"/>
    <trip id="1435" depart="204.83" from="gneE288" to="-gneE56" type="0" fromTaz="20" toTaz="101" departLane="free" departSpeed="max"/>
    <trip id="2010" depart="204.99" from="gneE303" to="-gneE7" type="0" fromTaz="29" toTaz="104" departLane="free" departSpeed="max"/>
    <trip id="240" depart="207.58" from="gneE179" to="gneE306" type="0" fromTaz="103" toTaz="31" departLane="free" departSpeed="max"/>
    <trip id="301" depart="208.04" from="gneE7" to="gneE275" type="0" fromTaz="104" toTaz="14" departLane="free" departSpeed="max"/>
    <trip id="2011" depart="211.37" from="gneE303" to="-gneE7" type="0" fromTaz="29" toTaz="104" departLane="free" departSpeed="max"/>
    <trip id="1441" depart="211.66" from="gneE288" to="-gneE7" type="0" fromTaz="20" toTaz="104" departLane="free" departSpeed="max"/>
    <trip id="62" depart="212.57" from="gneE270" to="-gneE7" type="0" fromTaz="10" toTaz="104" departLane="free" departSpeed="max"/>
    <trip id="1468" depart="217.22" from="gneE290" to="-gneE56" type="0" fromTaz="21" toTaz="101" departLane="free" departSpeed="max"/>
    <trip id="2712" depart="217.54" from="gneE313" to="-gneE56" type="0" fromTaz="39" toTaz="101" departLane="free" departSpeed="max"/>
    <trip id="1347" depart="217.88" from="gneE284" to="-gneE20" type="0" fromTaz="18" toTaz="106" departLane="free" departSpeed="max"/>
    <trip id="504" depart="217.98" from="gneE7" to="gneE265" type="0" fromTaz="104" toTaz="8" departLane="free" departSpeed="max"/>
    <trip id="1114" depart="219.03" from="gneE276" to="gneE241" type="0" fromTaz="14" toTaz="105" departLane="free" departSpeed="max"/>
    <trip id="236" depart="222.36" from="gneE179" to="gneE257" type="0" fromTaz="103" toTaz="3" departLane="free" departSpeed="max"/>
    <trip id="414" depart="222.41" from="gneE7" to="gneE304" type="0" fromTaz="104" toTaz="30" departLane="free" departSpeed="max"/>
    <trip id="836" depart="223.42" from="-gneE17" to="gneE287" type="0" fromTaz="109" toTaz="20" departLane="free" departSpeed="max"/>
    <trip id="3081" depart="224.99" from="gneE266" to="-gneE179" type="0" fromTaz="8" toTaz="103" departLane="free" departSpeed="max"/>
    <trip id="2338" depart="227.33" from="gneE309" to="-gneE7" type="0" fromTaz="32" toTaz="104" departLane="free" departSpeed="max"/>
    <trip id="1958" depart="228.81" from="gneE301" to="-gneE20" type="0" fromTaz="28" toTaz="106" departLane="free" departSpeed="max"/>
    <trip id="2197" depart="231.34" from="gneE258" to="gneE17" type="0" fromTaz="3" toTaz="109" departLane="free" departSpeed="max"/>
    <trip id="1002" depart="232.39" from="gneE274" to="-gneE56" type="0" fromTaz="13" toTaz="101" departLane="free" departSpeed="max"/>
    <trip id="1985" depart="232.59" from="gneE301" to="gneE64" type="0" fromTaz="28" toTaz="108" departLane="free" departSpeed="max"/>
    <trip id="2618" depart="233.93" from="gneE317" to="-gneE27" type="0" fromTaz="37" toTaz="107" departLane="free" departSpeed="max"/>
    <trip id="1991" depart="236.00" from="gneE301" to="gneE64" type="0" fromTaz="28" toTaz="108" departLane="free" departSpeed="max"/>
    <trip id="24" depart="238.38" from="gneE253" to="gneE241" type="0" fromTaz="1" toTaz="105" departLane="free" departSpeed="max"/>
    <trip id="2186" depart="239.19" from="gneE258" to="gneE64" type="0" fromTaz="3" toTaz="108" departLane="free" departSpeed="max"/>
    <trip id="494" depart="240.80" from="gneE7" to="gneE291" type="0" fromTaz="104" toTaz="7" departLane="free" departSpeed="max"/>
    <trip id="1904" depart="240.99" from="gneE299" to="gneE17" type="0" fromTaz="27" toTaz="109" departLane="free" departSpeed="max"/>
    <trip id="1997" depart="241.96" from="gneE301" to="gneE17" type="0" fromTaz="28" toTaz="109" departLane="free" departSpeed="max"/>
    <trip id="395" depart="242.93" from="gneE7" to="gneE257" type="0" fromTaz="104" toTaz="3" departLane="free" departSpeed="max"/>
    <trip id="1122" depart="243.18" from="gneE276" to="-gneE20" type="0" fromTaz="14" toTaz="106" departLane="free" departSpeed="max"/>
    <trip id="1000" depart="245.25" from="gneE272" to="gneE17" type="0" fromTaz="12" toTaz="109" departLane="free" departSpeed="max"/>
    <trip id="539" depart="245.75" from="gneE240" to="gneE294" type="0" fromTaz="105" toTaz="25" departLane="free" departSpeed="max"/>
    <trip id="2424" depart="246.36" from="gneE321" to="-gneE44" type="0" fromTaz="35" toTaz="102" departLane="free" departSpeed="max"/>
    <trip id="783" depart="251.89" from="gneE27" to="gneE291" type="0" fromTaz="107" toTaz="7" departLane="free" departSpeed="max"/>
    <trip id="1350" depart="252.05" from="gneE284" to="-gneE20" type="0" fromTaz="18" toTaz="106" departLane="free" departSpeed="max"/>
    <trip id="203" depart="254.09" from="gneE179" to="gneE277" type="0" fromTaz="103" toTaz="15" departLane="free" departSpeed="max"/>
    <trip id="1869" depart="254.60" from="gneE297" to="gneE17" type="0" fromTaz="26" toTaz="109" departLane="free" departSpeed="max"/>
    <trip id="2960" depart="255.26" from="gneE262" to="gneE241" type="0" fromTaz="5" toTaz="105" departLane="free" departSpeed="max"/>
    <trip id="3128" depart="256.52" from="gneE266" to="-gneE20" type="0" fromTaz="8" toTaz="106" departLane="free" departSpeed="max"/>
    <trip id="1234" depart="257.87" from="gneE278" to="gneE64" type="0" fromTaz="15" toTaz="108" departLane="free" departSpeed="max"/>
    <trip id="384" depart="260.97" from="gneE7" to="gneE300" type="0" fromTaz="104" toTaz="28" departLane="free" departSpeed="max"/>