<?xml version="1.0" encoding="UTF-8"?>

<!-- generated on 12/07/20 02:11:44 by Eclipse SUMO od2trips Version 1.8.0
<configuration xmlns:xsi="http://www.w3.org/2001/XMLSchema-instance" xsi:noNamespaceSchemaLocation="http://sumo.dlr.de/xsd/od2tripsConfiguration.xsd">

    <input>
        <taz-files value="D:\MEGA\Greenline\Greenline_sumo\greenline_OD\taz.add.xml"/>
        <od-amitran-files value="D:\MEGA\Greenline\Greenline_sumo\greenline_OD\input_od.xml"/>
    </input>

    <output>
        <output-file value="D:\MEGA\Greenline\Greenline_sumo\greenline_OD\trips.trips.xml"/>
    </output>

    <processing>
        <vtype value="10"/>
    </processing>

    <report>
        <verbose value="true"/>
    </report>

</configuration>
-->

<routes xmlns:xsi="http://www.w3.org/2001/XMLSchema-instance" xsi:noNamespaceSchemaLocation="http://sumo.dlr.de/xsd/routes_file.xsd">
    <trip id="494" depart="4.77" from="gneE282" to="-gneE7" type="0" fromTaz="17" toTaz="104" departLane="free" departSpeed="max"/>
    <trip id="313" depart="8.55" from="gneE276" to="gneE241" type="0" fromTaz="14" toTaz="105" departLane="free" departSpeed="max"/>
    <trip id="232" depart="11.12" from="gneE274" to="gneE241" type="0" fromTaz="13" toTaz="105" departLane="free" departSpeed="max"/>
    <trip id="2121" depart="15.00" from="gneE311" to="gneE64" type="0" fromTaz="40" toTaz="108" departLane="free" departSpeed="max"/>
    <trip id="1290" depart="16.08" from="gneE258" to="-gneE7" type="0" fromTaz="3" toTaz="104" departLane="free" departSpeed="max"/>
    <trip id="710" depart="18.97" from="gneE290" to="-gneE7" type="0" fromTaz="21" toTaz="104" departLane="free" departSpeed="max"/>
    <trip id="1981" depart="21.26" from="gneE260" to="-gneE56" type="0" fromTaz="4" toTaz="101" departLane="free" departSpeed="max"/>
    <trip id="1530" depart="21.76" from="gneE309" to="-gneE44" type="0" fromTaz="32" toTaz="102" departLane="free" departSpeed="max"/>
    <trip id="1037" depart="22.28" from="gneE297" to="gneE241" type="0" fromTaz="26" toTaz="105" departLane="free" departSpeed="max"/>
    <trip id="1336" depart="22.82" from="gneE258" to="-gneE20" type="0" fromTaz="3" toTaz="106" departLane="free" departSpeed="max"/>
    <trip id="373" depart="23.05" from="gneE278" to="-gneE179" type="0" fromTaz="15" toTaz="103" departLane="free" departSpeed="max"/>
    <trip id="1090" depart="23.89" from="gneE299" to="gneE241" type="0" fromTaz="27" toTaz="105" departLane="free" departSpeed="max"/>
    <trip id="1367" depart="24.44" from="gneE258" to="-gneE27" type="0" fromTaz="3" toTaz="107" departLane="free" departSpeed="max"/>
    <trip id="1695" depart="25.86" from="gneE319" to="-gneE179" type="0" fromTaz="36" toTaz="103" departLane="free" departSpeed="max"/>
    <trip id="55" depart="27.48" from="gneE270" to="-gneE179" type="0" fromTaz="10" toTaz="103" departLane="free" departSpeed="max"/>
    <trip id="1326" depart="32.14" from="gneE258" to="gneE241" type="0" fromTaz="3" toTaz="105" departLane="free" departSpeed="max"/>
    <trip id="1894" depart="32.84" from="gneE315" to="-gneE27" type="0" fromTaz="38" toTaz="107" departLane="free" departSpeed="max"/>
    <trip id="640" depart="33.54" from="gneE288" to="-gneE179" type="0" fromTaz="20" toTaz="103" departLane="free" departSpeed="max"/>
    <trip id="1673" depart="35.00" from="gneE321" to="gneE64" type="0" fromTaz="35" toTaz="108" departLane="free" departSpeed="max"/>
    <trip id="1230" depart="36.35" from="gneE303" to="-gneE20" type="0" fromTaz="29" toTaz="106" departLane="free" departSpeed="max"/>
    <trip id="188" depart="36.86" from="gneE272" to="gneE64" type="0" fromTaz="12" toTaz="108" departLane="free" departSpeed="max"/>
    <trip id="1355" depart="44.99" from="gneE258" to="-gneE27" type="0" fromTaz="3" toTaz="107" departLane="free" departSpeed="max"/>
    <trip id="542" depart="46.90" from="gneE284" to="gneE241" type="0" fromTaz="18" toTaz="105" departLane="free" departSpeed="max"/>
    <trip id="1187" depart="49.05" from="gneE301" to="gneE64" type="0" fromTaz="28" toTaz="108" departLane="free" departSpeed="max"/>
    <trip id="1968" depart="49.85" from="gneE313" to="gneE64" type="0" fromTaz="39" toTaz="108" departLane="free" departSpeed="max"/>
    <trip id="1385" depart="51.33" from="gneE258" to="gneE64" type="0" fromTaz="3" toTaz="108" departLane="free" departSpeed="max"/>
    <trip id="1465" depart="51.87" from="gneE307" to="-gneE179" type="0" fromTaz="31" toTaz="103" departLane="free" departSpeed="max"/>
    <trip id="1603" depart="53.94" from="gneE339" to="-gneE20" type="0" fromTaz="34" toTaz="106" departLane="free" departSpeed="max"/>
    <trip id="516" depart="54.47" from="gneE284" to="-gneE56" type="0" fromTaz="18" toTaz="101" departLane="free" departSpeed="max"/>
    <trip id="1864" depart="55.13" from="gneE315" to="-gneE7" type="0" fromTaz="38" toTaz="104" departLane="free" departSpeed="max"/>
    <trip id="5" depart="55.65" from="gneE253" to="-gneE44" type="0" fromTaz="1" toTaz="102" departLane="free" departSpeed="max"/>
    <trip id="1788" depart="56.27" from="gneE317" to="-gneE7" type="0" fromTaz="37" toTaz="104" departLane="free" departSpeed="max"/>
    <trip id="913" depart="57.01" from="gneE331" to="-gneE20" type="0" fromTaz="24" toTaz="106" departLane="free" departSpeed="max"/>
    <trip id="1369" depart="59.85" from="gneE258" to="-gneE27" type="0" fromTaz="3" toTaz="107" departLane="free" departSpeed="max"/>
    <trip id="907" depart="60.19" from="gneE331" to="-gneE20" type="0" fromTaz="24" toTaz="106" departLane="free" departSpeed="max"/>
    <trip id="1029" depart="62.26" from="gneE297" to="-gneE7" type="0" fromTaz="26" toTaz="104" departLane="free" departSpeed="max"/>
    <trip id="1608" depart="62.44" from="gneE339" to="-gneE27" type="0" fromTaz="34" toTaz="107" departLane="free" departSpeed="max"/>
    <trip id="1099" depart="63.18" from="gneE299" to="-gneE27" type="0" fromTaz="27" toTaz="107" departLane="free" departSpeed="max"/>
    <trip id="1787" depart="65.23" from="gneE317" to="-gneE7" type="0" fromTaz="37" toTaz="104" departLane="free" departSpeed="max"/>
    <trip id="2307" depart="66.85" from="gneE266" to="gneE241" type="0" fromTaz="8" toTaz="105" departLane="free" departSpeed="max"/>
    <trip id="1896" depart="68.70" from="gneE315" to="-gneE27" type="0" fromTaz="38" toTaz="107" departLane="free" departSpeed="max"/>
    <trip id="1024" depart="72.86" from="gneE297" to="-gneE179" type="0" fromTaz="26" toTaz="103" departLane="free" departSpeed="max"/>
    <trip id="674" depart="76.05" from="gneE290" to="-gneE56" type="0" fromTaz="21" toTaz="101" departLane="free" departSpeed="max"/>
    <trip id="951" depart="76.97" from="gneE295" to="-gneE179" type="0" fromTaz="25" toTaz="103" departLane="free" departSpeed="max"/>
    <trip id="2269" depart="77.29" from="gneE292" to="gneE17" type="0" fromTaz="7" toTaz="109" departLane="free" departSpeed="max"/>
    <trip id="399" depart="77.89" from="gneE278" to="gneE241" type="0" fromTaz="15" toTaz="105" departLane="free" departSpeed="max"/>
    <trip id="1419" depart="86.35" from="gneE305" to="-gneE7" type="0" fromTaz="30" toTaz="104" departLane="free" departSpeed="max"/>
    <trip id="1760" depart="86.41" from="gneE319" to="gneE17" type="0" fromTaz="36" toTaz="109" departLane="free" departSpeed="max"/>
    <trip id="1626" depart="90.97" from="gneE321" to="-gneE44" type="0" fromTaz="35" toTaz="102" departLane="free" departSpeed="max"/>
    <trip id="864" depart="92.51" from="gneE251" to="gneE64" type="0" fromTaz="22" toTaz="108" departLane="free" departSpeed="max"/>
    <trip id="639" depart="94.44" from="gneE288" to="-gneE44" type="0" fromTaz="20" toTaz="102" departLane="free" departSpeed="max"/>
    <trip id="165" depart="94.84" from="gneE272" to="-gneE27" type="0" fromTaz="12" toTaz="107" departLane="free" departSpeed="max"/>
    <trip id="872" depart="95.90" from="gneE251" to="gneE17" type="0" fromTaz="22" toTaz="109" departLane="free" departSpeed="max"/>
    <trip id="966" depart="96.84" from="gneE295" to="gneE241" type="0" fromTaz="25" toTaz="105" departLane="free" departSpeed="max"/>
    <trip id="1323" depart="100.27" from="gneE258" to="gneE241" type="0" fromTaz="3" toTaz="105" departLane="free" departSpeed="max"/>
    <trip id="86" depart="100.63" from="gneE270" to="gneE64" type="0" fromTaz="10" toTaz="108" departLane="free" departSpeed="max"/>
    <trip id="1234" depart="102.91" from="gneE303" to="-gneE27" type="0" fromTaz="29" toTaz="107" departLane="free" departSpeed="max"/>
    <trip id="1825" depart="103.47" from="gneE317" to="gneE64" type="0" fromTaz="37" toTaz="108" departLane="free" departSpeed="max"/>
    <trip id="1563" depart="103.83" from="gneE309" to="-gneE27" type="0" fromTaz="32" toTaz="107" departLane="free" departSpeed="max"/>
    <trip id="1276" depart="108.76" from="gneE258" to="-gneE179" type="0" fromTaz="3" toTaz="103" departLane="free" departSpeed="max"/>
    <trip id="830" depart="108.86" from="gneE251" to="gneE241" type="0" fromTaz="22" toTaz="105" departLane="free" departSpeed="max"/>
    <trip id="841" depart="110.09" from="gneE251" to="-gneE20" type="0" fromTaz="22" toTaz="106" departLane="free" departSpeed="max"/>
    <trip id="2293" depart="111.09" from="gneE266" to="-gneE7" type="0" fromTaz="8" toTaz="104" departLane="free" departSpeed="max"/>
    <trip id="1865" depart="121.15" from="gneE315" to="-gneE7" type="0" fromTaz="38" toTaz="104" departLane="free" departSpeed="max"/>
    <trip id="1684" depart="121.44" from="gneE319" to="-gneE56" type="0" fromTaz="36" toTaz="101" departLane="free" departSpeed="max"/>
    <trip id="395" depart="122.68" from="gneE278" to="gneE241" type="0" fromTaz="15" toTaz="105" departLane="free" departSpeed="max"/>
    <trip id="745" depart="123.04" from="gneE290" to="-gneE20" type="0" fromTaz="21" toTaz="106" departLane="free" departSpeed="max"/>
    <trip id="970" depart="125.00" from="gneE295" to="gneE241" type="0" fromTaz="25" toTaz="105" departLane="free" departSpeed="max"/>
    <trip id="1717" depart="127.90" from="gneE319" to="gneE241" type="0" fromTaz="36" toTaz="105" departLane="free" departSpeed="max"/>
    <trip id="422" depart="128.34" from="gneE278" to="-gneE27" type="0" fromTaz="15" toTaz="107" departLane="free" departSpeed="max"/>
    <trip id="1594" depart="128.51" from="gneE339" to="-gneE7" type="0" fromTaz="34" toTaz="104" departLane="free" departSpeed="max"/>
    <trip id="1450" depart="128.61" from="gneE305" to="gneE64" type="0" fromTaz="30" toTaz="108" departLane="free" departSpeed="max"/>
    <trip id="347" depart="130.11" from="gneE276" to="gneE64" type="0" fromTaz="14" toTaz="108" departLane="free" departSpeed="max"/>
    <trip id="539" depart="132.34" from="gneE284" to="gneE241" type="0" fromTaz="18" toTaz="105" departLane="free" departSpeed="max"/>
    <trip id="1655" depart="133.65" from="gneE321" to="-gneE20" type="0" fromTaz="35" toTaz="106" departLane="free" departSpeed="max"/>
    <trip id="2108" depart="133.86" from="gneE311" to="-gneE20" type="0" fromTaz="40" toTaz="106" departLane="free" departSpeed="max"/>
    <trip id="2114" depart="135.95" from="gneE311" to="-gneE27" type="0" fromTaz="40" toTaz="107" departLane="free" departSpeed="max"/>
    <trip id="2036" depart="141.81" from="gneE260" to="-gneE20" type="0" fromTaz="4" toTaz="106" departLane="free" departSpeed="max"/>
    <trip id="540" depart="142.85" from="gneE284" to="gneE241" type="0" fromTaz="18" toTaz="105" departLane="free" departSpeed="max"/>
    <trip id="614" depart="145.86" from="gneE286" to="-gneE20" type="0" fromTaz="19" toTaz="106" departLane="free" departSpeed="max"/>
    <trip id="1510" depart="146.43" from="gneE307" to="-gneE27" type="0" fromTaz="31" toTaz="107" departLane="free" departSpeed="max"/>
    <trip id="382" depart="146.94" from="gneE278" to="-gneE7" type="0" fromTaz="15" toTaz="104" departLane="free" departSpeed="max"/>
    <trip id="583" depart="148.98" from="gneE286" to="-gneE179" type="0" fromTaz="19" toTaz="103" departLane="free" departSpeed="max"/>
    <trip id="550" depart="149.02" from="gneE284" to="-gneE20" type="0" fromTaz="18" toTaz="106" departLane="free" departSpeed="max"/>
    <trip id="303" depart="150.40" from="gneE276" to="-gneE7" type="0" fromTaz="14" toTaz="104" departLane="free" departSpeed="max"/>
    <trip id="1484" depart="154.88" from="gneE307" to="gneE241" type="0" fromTaz="31" toTaz="105" departLane="free" departSpeed="max"/>
    <trip id="1354" depart="158.23" from="gneE258" to="-gneE27" type="0" fromTaz="3" toTaz="107" departLane="free" departSpeed="max"/>
    <trip id="1892" depart="158.29" from="gneE315" to="-gneE27" type="0" fromTaz="38" toTaz="107" departLane="free" departSpeed="max"/>
    <trip id="949" depart="161.60" from="gneE295" to="-gneE179" type="0" fromTaz="25" toTaz="103" departLane="free" departSpeed="max"/>
    <trip id="1225" depart="162.12" from="gneE303" to="-gneE20" type="0" fromTaz="29" toTaz="106" departLane="free" departSpeed="max"/>
    <trip id="1966" depart="162.42" from="gneE313" to="-gneE27" type="0" fromTaz="39" toTaz="107" departLane="free" departSpeed="max"/>
    <trip id="17" depart="163.02" from="gneE253" to="-gneE7" type="0" fromTaz="1" toTaz="104" departLane="free" departSpeed="max"/>
    <trip id="2327" depart="168.45" from="gneE266" to="-gneE20" type="0" fromTaz="8" toTaz="106" departLane="free" departSpeed="max"/>
    <trip id="1401" depart="168.69" from="gneE258" to="gneE17" type="0" fromTaz="3" toTaz="109" departLane="free" departSpeed="max"/>
    <trip id="2218" depart="169.47" from="gneE292" to="-gneE44" type="0" fromTaz="7" toTaz="102" departLane="free" departSpeed="max"/>
    <trip id="84" depart="169.75" from="gneE270" to="-gneE27" type="0" fromTaz="10" toTaz="107" departLane="free" departSpeed="max"/>
    <trip id="212" depart="170.05" from="gneE274" to="-gneE179" type="0" fromTaz="13" toTaz="103" departLane="free" departSpeed="max"/>
    <trip id="387" depart="171.44" from="gneE278" to="-gneE7" type="0" fromTaz="15" toTaz="104" departLane="free" departSpeed="max"/>
    <trip id="1680" depart="171.46" from="gneE321" to="gneE17" type="0" fromTaz="35" toTaz="109" departLane="free" departSpeed="max"/>
    <trip id="2371" depart="172.29" from="gneE268" to="gneE241" type="0" fromTaz="9" toTaz="105" departLane="free" departSpeed="max"/>
    <trip id="1002" depart="179.28" from="gneE295" to="gneE64" type="0" fromTaz="25" toTaz="108" departLane="free" departSpeed="max"/>
    <trip id="128" depart="179.52" from="gneE272" to="-gneE7" type="0" fromTaz="12" toTaz="104" departLane="free" departSpeed="max"/>
    <trip id="2101" depart="179.79" from="gneE311" to="gneE241" type="0" fromTaz="40" toTaz="105" departLane="free" departSpeed="max"/>
    <trip id="2305" depart="180.41" from="gneE266" to="gneE241" type="0" fromTaz="8" toTaz="105" departLane="free" departSpeed="max"/>
    <trip id="2090" depart="181.08" from="gneE311" to="-gneE179" type="0" fromTaz="40" toTaz="103" departLane="free" departSpeed="max"/>
    <trip id="315" depart="181.60" from="gneE276" to="gneE241" type="0" fromTaz="14" toTaz="105" departLane="free" departSpeed="max"/>
    <trip id="1571" depart="181.97" from="gneE309" to="gneE64" type="0" fromTaz="32" toTaz="108" departLane="free" departSpeed="max"/>
    <trip id="437" depart="182.42" from="gneE278" to="gneE64" type="0" fromTaz="15" toTaz="108" departLane="free" departSpeed="max"/>
    <trip id="1824" depart="183.21" from="gneE317" to="-gneE27" type="0" fromTaz="37" toTaz="107" departLane="free" departSpeed="max"/>
    <trip id="973" depart="185.27" from="gneE295" to="gneE241" type="0" fromTaz="25" toTaz="105" departLane="free" departSpeed="max"/>
    <trip id="1058" depart="186.49" from="gneE297" to="-gneE27" type="0" fromTaz="26" toTaz="107" departLane="free" departSpeed="max"/>
    <trip id="361" depart="187.53" from="gneE276" to="gneE17" type="0" fromTaz="14" toTaz="109" departLane="free" departSpeed="max"/>
    <trip id="1057" depart="187.95" from="gneE297" to="-gneE27" type="0" fromTaz="26" toTaz="107" departLane="free" departSpeed="max"/>
    <trip id="42" depart="188.13" from="gneE253" to="gneE64" type="0" fromTaz="1" toTaz="108" departLane="free" departSpeed="max"/>
    <trip id="265" depart="188.21" from="gneE274" to="gneE64" type="0" fromTaz="13" toTaz="108" departLane="free" departSpeed="max"/>
    <trip id="97" depart="196.41" from="gneE272" to="-gneE56" type="0" fromTaz="12" toTaz="101" departLane="free" departSpeed="max"/>
    <trip id="1247" depart="200.03" from="gneE303" to="gneE17" type="0" fromTaz="29" toTaz="109" departLane="free" departSpeed="max"/>
    <trip id="2334" depart="201.22" from="gneE266" to="-gneE27" type="0" fromTaz="8" toTaz="107" departLane="free" departSpeed="max"/>
    <trip id="461" depart="201.49" from="gneE280" to="-gneE7" type="0" fromTaz="16" toTaz="104" departLane="free" departSpeed="max"/>
    <trip id="1853" depart="204.31" from="gneE315" to="-gneE179" type="0" fromTaz="38" toTaz="103" departLane="free" departSpeed="max"/>
    <trip id="2043" depart="204.65" from="gneE260" to="-gneE20" type="0" fromTaz="4" toTaz="106" departLane="free" departSpeed="max"/>
    <trip id="2146" depart="205.13" from="gneE262" to="-gneE7" type="0" fromTaz="5" toTaz="104" departLane="free" departSpeed="max"/>
    <trip id="1140" depart="207.56" from="gneE301" to="gneE241" type="0" fromTaz="28" toTaz="105" departLane="free" departSpeed="max"/>
    <trip id="156" depart="211.05" from="gneE272" to="-gneE20" type="0" fromTaz="12" toTaz="106" departLane="free" departSpeed="max"/>
    <trip id="2061" depart="211.37" from="gneE260" to="-gneE27" type="0" fromTaz="4" toTaz="107" departLane="free" departSpeed="max"/>
    <trip id="62" depart="212.57" from="gneE270" to="-gneE7" type="0" fromTaz="10" toTaz="104" departLane="free" departSpeed="max"/>
    <trip id="1747" depart="213.84" from="gneE319" to="gneE64" type="0" fromTaz="36" toTaz="108" departLane="free" departSpeed="max"/>
    <trip id="1746" depart="216.67" from="gneE319" to="gneE64" type="0" fromTaz="36" toTaz="108" departLane="free" departSpeed="max"/>
    <trip id="1523" depart="217.22" from="gneE307" to="gneE17" type="0" fromTaz="31" toTaz="109" departLane="free" departSpeed="max"/>
    <trip id="1399" depart="217.88" from="gneE258" to="gneE17" type="0" fromTaz="3" toTaz="109" departLane="free" departSpeed="max"/>
    <trip id="875" depart="218.23" from="gneE251" to="gneE17" type="0" fromTaz="22" toTaz="109" departLane="free" departSpeed="max"/>
    <trip id="1158" depart="219.03" from="gneE301" to="-gneE20" type="0" fromTaz="28" toTaz="106" departLane="free" departSpeed="max"/>
    <trip id="432" depart="222.41" from="gneE278" to="gneE64" type="0" fromTaz="15" toTaz="108" departLane="free" departSpeed="max"/>
    <trip id="559" depart="222.49" from="gneE284" to="-gneE27" type="0" fromTaz="18" toTaz="107" departLane="free" departSpeed="max"/>
    <trip id="1498" depart="223.52" from="gneE307" to="-gneE20" type="0" fromTaz="31" toTaz="106" departLane="free" departSpeed="max"/>
    <trip id="1614" depart="224.98" from="gneE339" to="gneE64" type="0" fromTaz="34" toTaz="108" departLane="free" departSpeed="max"/>
    <trip id="1666" depart="227.42" from="gneE321" to="-gneE27" type="0" fromTaz="35" toTaz="107" departLane="free" departSpeed="max"/>
    <trip id="919" depart="227.50" from="gneE331" to="-gneE27" type="0" fromTaz="24" toTaz="107" departLane="free" departSpeed="max"/>
    <trip id="2060" depart="228.56" from="gneE260" to="-gneE27" type="0" fromTaz="4" toTaz="107" departLane="free" departSpeed="max"/>
    <trip id="2245" depart="231.34" from="gneE292" to="-gneE20" type="0" fromTaz="7" toTaz="106" departLane="free" departSpeed="max"/>
    <trip id="1047" depart="232.39" from="gneE297" to="-gneE20" type="0" fromTaz="26" toTaz="106" departLane="free" departSpeed="max"/>
    <trip id="2285" depart="235.56" from="gneE266" to="-gneE179" type="0" fromTaz="8" toTaz="103" departLane="free" departSpeed="max"/>
    <trip id="245" depart="235.68" from="gneE274" to="-gneE20" type="0" fromTaz="13" toTaz="106" departLane="free" departSpeed="max"/>
    <trip id="900" depart="236.20" from="gneE331" to="gneE241" type="0" fromTaz="24" toTaz="105" departLane="free" departSpeed="max"/>
    <trip id="24" depart="238.38" from="gneE253" to="gneE241" type="0" fromTaz="1" toTaz="105" departLane="free" departSpeed="max"/>
    <trip id="1862" depart="239.05" from="gneE315" to="-gneE7" type="0" fromTaz="38" toTaz="104" departLane="free" departSpeed="max"/>
    <trip id="508" depart="240.80" from="gneE282" to="-gneE27" type="0" fromTaz="17" toTaz="107" departLane="free" departSpeed="max"/>
    <trip id="1953" depart="240.99" from="gneE313" to="-gneE20" type="0" fromTaz="39" toTaz="106" departLane="free" departSpeed="max"/>
    <trip id="1167" depart="243.18" from="gneE301" to="-gneE20" type="0" fromTaz="28" toTaz="106" departLane="free" departSpeed="max"/>
    <trip id="260" depart="244.16" from="gneE274" to="-gneE27" type="0" fromTaz="13" toTaz="107" departLane="free" departSpeed="max"/>
    <trip id="781" depart="244.71" from="gneE290" to="gneE17" type="0" fromTaz="21" toTaz="109" departLane="free" departSpeed="max"/>
    <trip id="1045" depart="245.25" from="gneE297" to="gneE241" type="0" fromTaz="26" toTaz="105" departLane="free" departSpeed="max"/>
    <trip id="874" depart="248.19" from="gneE251" to="gneE17" type="0" fromTaz="22" toTaz="109" departLane="free" departSpeed="max"/>
    <trip id="2112" depart="250.40" from="gneE311" to="-gneE27" type="0" fromTaz="40" toTaz="107" departLane="free" departSpeed="max"/>
    <trip id="1402" depart="252.05" from="gneE258" to="gneE17" type="0" fromTaz="3" toTaz="109" departLane="free" departSpeed="max"/>
    <trip id="2073" depart="252.62" from="gneE260" to="gneE64" type="0" fromTaz="4" toTaz="108" departLane="free" departSpeed="max"/>
    <trip id="1916" depart="254.60" from="gneE313" to="-gneE56" type="0" fromTaz="39" toTaz="101" departLane="free" departSpeed="max"/>
    <trip id="1279" depart="257.87" from="gneE258" to="-gneE179" type="0" fromTaz="3" toTaz="103" departLane="free" departSpeed="max"/>
    <trip id="403" depart="260.97" from="gneE278" to="gneE241" type="0" fromTaz="15" toTaz="105" departLane="free" departSpeed="max"/>
    <trip id="768" depart="263.80" from="gneE290" to="gneE64" type="0" fromTaz="21" toTaz="108" departLane="free" departSpeed="max"/>
    <trip id="1468" depart="264.43" from="gneE307" to="-gneE179" type="0" fromTaz="31" toTaz="103" departLane="free" departSpeed="max"/>
    <trip id="322" depart="265.28" from="gneE276" to="-gneE20" type="0" fromTaz="14" toTaz="106" departLane="free" departSpeed="max"/>
    <trip id="939" depart="265.35" from="gneE295" to="-gneE56" type="0" fromTaz="25" toTaz="101" departLane="free" departSpeed="max"/>
    <trip id="624" depart="266.05" from="gneE286" to="gneE64" type="0" fromTaz="19" toTaz="108" departLane="free" departSpeed="max"/>
    <trip id="2198" depart="266.08" from="gneE262" to="gneE64" type="0" fromTaz="5" toTaz="108" departLane="free" departSpeed="max"/>
    <trip id="1084" depart="270.94" from="gneE299" to="-gneE7" type="0" fromTaz="27" toTaz="104" departLane="free" departSpeed="max"/>
    <trip id="479" depart="272.92" from="gneE280" to="gneE64" type="0" fromTaz="16" toTaz="108" departLane="free" departSpeed="max"/>
    <trip id="848" depart="275.22" from="gneE251" to="-gneE27" type="0" fromTaz="22" toTaz="107" departLane="free" departSpeed="max"/>
    <trip id="2130" depart="278.07" from="gneE262" to="-gneE56" type="0" fromTaz="5" toTaz="101" departLane="free" departSpeed="max"/>
    <trip id="2192" depart="278.20" from="gneE262" to="-gneE27" type="0" fromTaz="5" toTaz="107" departLane="free" departSpeed="max"/>
    <trip id="340" depart="280.53" from="gneE276" to="-gneE27" type="0" fromTaz="14" toTaz="107" departLane="free" departSpeed="max"/>
    <trip id="723" depart="280.71" from="gneE290" to="gneE241" type="0" fromTaz="21" toTaz="105" departLane="free" departSpeed="max"/>
    <trip id="1859" depart="283.80" from="gneE315" to="-gneE7" type="0" fromTaz="38" toTaz="104" departLane="free" departSpeed="max"/>
    <trip id="578" depart="284.18" from="gneE286" to="-gneE56" type="0" fromTaz="19" toTaz="101" departLane="free" departSpeed="max"/>
    <trip id="1010" depart="284.35" from="gneE295" to="gneE17" type="0" fromTaz="25" toTaz="109" departLane="free" departSpeed="max"/>
    <trip id="1405" depart="287.53" from="gneE305" to="-gneE56" type="0" fromTaz="30" toTaz="101" departLane="free" departSpeed="max"/>
    <trip id="925" depart="289.53" from="gneE331" to="gneE64" type="0" fromTaz="24" toTaz="108" departLane="free" departSpeed="max"/>
    <trip id="1867" depart="290.88" from="gneE315" to="gneE241" type="0" fromTaz="38" toTaz="105" departLane="free" departSpeed="max"/>
    <trip id="187" depart="292.21" from="gneE272" to="gneE64" type="0" fromTaz="12" toTaz="108" departLane="free" departSpeed="max"/>
    <trip id="314" depart="292.32" from="gneE276" to="gneE241" type="0" fromTaz="14" toTaz="105" departLane="free" departSpeed="max"/>
    <trip id="390" depart="294.01" from="gneE278" to="-gneE7" type="0" fromTaz="15" toTaz="104" departLane="free" departSpeed="max"/>
    <trip id="987" depart="298.61" from="gneE295" to="-gneE20" type="0" fromTaz="25" toTaz="106" departLane="free" departSpeed="max"/>
    <trip id="1280" depart="301.64" from="gneE258" to="-gneE179" type="0" fromTaz="3" toTaz="103" departLane="free" departSpeed="max"/>
    <trip id="916" depart="302.63" from="gneE331" to="-gneE27" type="0" fromTaz="24" toTaz="107" departLane="free" departSpeed="max"/>
    <trip id="621" depart="302.92" from="gneE286" to="-gneE27" type="0" fromTaz="19" toTaz="107" departLane="free" departSpeed="max"/>
    <trip id="254" depart="305.15" from="gneE274" to="-gneE27" type="0" fromTaz="13" toTaz="107" departLane="free" departSpeed="max"/>
    <trip id="2249" depart="306.26" from="gneE292" to="-gneE20" type="0" fromTaz="7" toTaz="106" departLane="free" departSpeed="max"/>
    <trip id="351" depart="306.36" from="gneE276" to="gneE64" type="0" fromTaz="14" toTaz="108" departLane="free" departSpeed="max"/>
    <trip id="1988" depart="306.58" from="gneE260" to="-gneE56" type="0" fromTaz="4" toTaz="101" departLane="free" departSpeed="max"/>
    <trip id="2294" depart="306.87" from="gneE266" to="-gneE7" type="0" fromTaz="8" toTaz="104" departLane="free" departSpeed="max"/>
    <trip id="500" depart="307.23" from="gneE282" to="-gneE20" type="0" fromTaz="17" toTaz="106" departLane="free" departSpeed="max"/>
    <trip id="421" depart="309.17" from="gneE278" to="-gneE27" type="0" fromTaz="15" toTaz="107" departLane="free" departSpeed="max"/>
    <trip id="601" depart="312.63" from="gneE286" to="gneE241" type="0" fromTaz="19" toTaz="105" departLane="free" departSpeed="max"/>
    <trip id="567" depart="312.99" from="gneE284" to="gneE64" type="0" fromTaz="18" toTaz="108" departLane="free" departSpeed="max"/>
    <trip id="2018" depart="314.94" from="gneE260" to="-gneE7" type="0" fromTaz="4" toTaz="104" departLane="free" departSpeed="max"/>
    <trip id="524" depart="315.21" from="gneE284" to="-gneE179" type="0" fromTaz="18" toTaz="103" departLane="free" departSpeed="max"/>
    <trip id="103" depart="315.31" from="gneE272" to="-gneE44" type="0" fromTaz="12" toTaz="102" departLane="free" departSpeed="max"/>
    <trip id="1242" depart="315.96" from="gneE303" to="gneE64" type="0" fromTaz="29" toTaz="108" departLane="free" departSpeed="max"/>
    <trip id="997" depart="318.06" from="gneE295" to="-gneE27" type="0" fromTaz="25" toTaz="107" departLane="free" departSpeed="max"/>
    <trip id="835" depart="318.37" from="gneE251" to="-gneE20" type="0" fromTaz="22" toTaz="106" departLane="free" departSpeed="max"/>
    <trip id="1178" depart="319.74" from="gneE301" to="-gneE27" type="0" fromTaz="28" toTaz="107" departLane="free" departSpeed="max"/>
    <trip id="64" depart="325.69" from="gneE270" to="-gneE7" type="0" fromTaz="10" toTaz="104" departLane="free" departSpeed="max"/>
    <trip id="327" depart="327.86" from="gneE276" to="-gneE20" type="0" fromTaz="14" toTaz="106" departLane="free" departSpeed="max"/>
    <trip id="1630" depart="329.10" from="gneE321" to="-gneE179" type="0" fromTaz="35" toTaz="103" departLane="free" departSpeed="max"/>
    <trip id="1938" depart="332.81" from="gneE313" to="gneE241" type="0" fromTaz="39" toTaz="105" departLane="free" departSpeed="max"/>
    <trip id="2006" depart="333.67" from="gneE260" to="-gneE7" type="0" fromTaz="4" toTaz="104" departLane="free" departSpeed="max"/>
    <trip id="562" depart="335.03" from="gneE284" to="-gneE27" type="0" fromTaz="18" toTaz="107" departLane="free" departSpeed="max"/>
    <trip id="1961" depart="337.06" from="gneE313" to="-gneE27" type="0" fromTaz="39" toTaz="107" departLane="free" departSpeed="max"/>
    <trip id="206" depart="337.63" from="gneE274" to="-gneE56" type="0" fromTaz="13" toTaz="101" departLane="free" departSpeed="max"/>
    <trip id="887" depart="338.45" from="gneE331" to="-gneE179" type="0" fromTaz="24" toTaz="103" departLane="free" departSpeed="max"/>
    <trip id="552" depart="340.80" from="gneE284" to="-gneE20" type="0" fromTaz="18" toTaz="106" departLane="free" departSpeed="max"/>
    <trip id="533" depart="342.66" from="gneE284" to="-gneE7" type="0" fromTaz="18" toTaz="104" departLane="free" departSpeed="max"/>
    <trip id="1784" depart="344.70" from="gneE317" to="-gneE7" type="0" fromTaz="37" toTaz="104" departLane="free" departSpeed="max"/>
    <trip id="20" depart="345.66" from="gneE253" to="gneE241" type="0" fromTaz="1" toTaz="105" departLane="free" departSpeed="max"/>
    <trip id="521" depart="350.31" from="gneE284" to="-gneE44" type="0" fromTaz="18" toTaz="102" departLane="free" departSpeed="max"/>
    <trip id="1500" depart="350.64" from="gneE307" to="-gneE20" type="0" fromTaz="31" toTaz="106" departLane="free" departSpeed="max"/>