<?xml version="1.0" encoding="UTF-8"?>
<!-- generated on 12/04/20 17:00:30 by Eclipse SUMO netedit Version 1.8.0
<configuration
xmlns:xsi="http://www.w3.org/2001/XMLSchema-instance" xsi:noNamespaceSchemaLocation="http://sumo.dlr.de/xsd/netconvertConfiguration.xsd"><input><sumo-net-file value="D:\MEGA\Greenline\Greenline_sumo\greenline_OD\greenline.net.xml"/></input><output><output-file value="D:\MEGA\Greenline\Greenline_sumo\greenline_OD\greenline.net.xml"/></output><processing><geometry.min-radius.fix.railways value="false"/><geometry.max-grade.fix value="false"/><offset.disable-normalization value="true"/><lefthand value="false"/></processing><junctions><no-turnarounds value="true"/><junctions.corner-detail value="5"/><junctions.limit-turn-speed value="5.5"/><rectangular-lane-cut value="false"/></junctions><pedestrian><walkingareas value="false"/></pedestrian><netedit><additional-files value="D:\MEGA\Greenline\Greenline_sumo\greenline_OD\taz.add.xml"/><route-files value="D:\MEGA\Greenline\Greenline_sumo\greenline_OD\vehicles.rou.xml"/></netedit><report><aggregate-warnings value="5"/></report></configuration>
-->
<routes
    xmlns:xsi="http://www.w3.org/2001/XMLSchema-instance" xsi:noNamespaceSchemaLocation="http://sumo.dlr.de/xsd/routes_file.xsd">
    <route edges="gneE301 -gneE47.127" color="yellow" id="route_0"/>
    <flow id="4.4_3" begin="0.00" end="3600.00" vehsPerHour="137.00">
        <route edges="-gneE17 gneE188 gneE64" color="cyan"/>
    </flow>
</routes>
