<?xml version="1.0" encoding="UTF-8"?>
<!-- generated on 12/06/20 17:51:48 by Eclipse SUMO netedit Version 1.8.0
<configuration
xmlns:xsi="http://www.w3.org/2001/XMLSchema-instance" xsi:noNamespaceSchemaLocation="http://sumo.dlr.de/xsd/netconvertConfiguration.xsd"><input><sumo-net-file value="D:\MEGA\Greenline\Greenline_sumo\greenline_OD\greenline.net.xml"/></input><output><output-file value="D:\MEGA\Greenline\Greenline_sumo\greenline_OD\greenline.net.xml"/></output><processing><geometry.min-radius.fix.railways value="false"/><geometry.max-grade.fix value="false"/><offset.disable-normalization value="true"/><lefthand value="false"/></processing><junctions><no-turnarounds value="true"/><junctions.corner-detail value="5"/><junctions.limit-turn-speed value="5.5"/><rectangular-lane-cut value="false"/></junctions><pedestrian><walkingareas value="false"/></pedestrian><netedit><route-files value="D:\MEGA\Greenline\Greenline_sumo\greenline_OD\vehicles.rou.xml"/></netedit><report><aggregate-warnings value="5"/></report></configuration>
-->
<routes
    xmlns:xsi="http://www.w3.org/2001/XMLSchema-instance" xsi:noNamespaceSchemaLocation="http://sumo.dlr.de/xsd/routes_file.xsd">
    <vType id="passenger" guiShape="passenger/sedan" length="4.30" maxSpeed="180.00" color="#FF0000" accel="2.6" decel="7.8" probability="0.49" carFollowModel="IDM" sigma="1" minGap="2" jmCrossingGap="15" tau="1"/>
    <flow id="1.2_3" type="passenger" begin="0.00" departLane="best" end="3600.00" vehsPerHour="268.00">
        <route edges="gneE7 gneE8 gneE19 gneE241" color="cyan"/>
    </flow>
    <flow id="1.2_4-4.2_3" type="passenger" begin="0.00" departLane="best" end="3600.00" vehsPerHour="439.99">
        <route edges="gneE7 gneE8 gneE9 gneE10 gneE11 -gneE12 gneE13 gneE14 gneE15 gneE63 gneE64" color="cyan"/>
    </flow>
    <flow id="1.2_4-4.2_4" type="passenger" begin="0.00" departLane="best" end="3600.00" vehsPerHour="780.07">
        <route edges="gneE7 gneE8 gneE9 gneE10 gneE11 -gneE12 gneE13 gneE14 gneE15 gneE16 gneE17" color="cyan"/>
    </flow>
    <flow id="1.2_4-8.3_1" type="passenger" begin="0.00" departLane="best" end="3600.00" vehsPerHour="50.00">
        <route edges="gneE7 gneE8 gneE9 gneE10 gneE11 -gneE12 gneE13 gneE14 gneE190 -gneE61 -gneE60 -gneE58 -gneE57 -gneE57.256 -gneE57.746 -gneE56 -gneE56.101 -gneE56.123" color="cyan"/>
    </flow>
    <flow id="1.3_1-7.3_1" type="passenger" begin="0.00" departLane="best" end="3600.00" vehsPerHour="699.98">
        <route edges="gneE240 -gneE19 gneE34 gneE35 gneE37 gneE38 gneE39 gneE40 gneE41 gneE42 -gneE44" color="cyan"/>
    </flow>
    <flow id="1.3_1-7.3_2" type="passenger" begin="0.00" departLane="best" end="3600.00" vehsPerHour="184.00">
        <route edges="gneE240 -gneE19 gneE34 gneE35 gneE37 gneE38 gneE39 -gneE179 -gneE179.27" color="cyan"/>
    </flow>
    <flow id="1.3_2" type="passenger" begin="0.00" departLane="best" end="3600.00" vehsPerHour="398.98">
        <route edges="gneE240 gneE196 -gneE7" color="cyan"/>
    </flow>
    <flow id="1.3_4-2.2_1" type="passenger" begin="0.00" departLane="best" end="3600.00" vehsPerHour="70.00">
        <route edges="gneE240 -gneE19 gneE9 gneE10 gneE11 -gneE33 -gneE32 gneE340" color="cyan"/>
    </flow>
    <flow id="1.3_4-4.2_4" type="passenger" begin="0.00" departLane="best" end="3600.00" vehsPerHour="140.00">
        <route edges="gneE240 -gneE19 gneE9 gneE10 gneE11 -gneE12 gneE13 gneE14 gneE15 gneE16 gneE17" color="cyan"/>
    </flow>
    <flow id="1.3_4-6.3_4" type="passenger" begin="0.00" departLane="best" end="3600.00" vehsPerHour="70.00">
        <route edges="gneE240 -gneE19 gneE9 gneE10 gneE11 -gneE12 gneE13 gneE14 gneE190 -gneE61 -gneE60 gneE83" color="cyan"/>
    </flow>
    <flow id="2.1_2-1.4_2" type="passenger" begin="0.00" departLane="best" end="3600.00" vehsPerHour="216.00">
        <route edges="gneE341 gneE32.151 gneE33 -gneE11 -gneE10 -gneE9 -gneE8 -gneE7" color="cyan"/>
    </flow>
    <flow id="2.1_3" type="passenger" begin="0.00" departLane="best" end="3600.00" vehsPerHour="180.00">
        <route edges="gneE341 gneE32.151 gneE33 -gneE25 -gneE22 -gneE20" color="cyan"/>
    </flow>
    <flow id="2.3_1" type="passenger" begin="0.00" departLane="best" end="3600.00" vehsPerHour="144.00">
        <route edges="gneE20 gneE22 gneE25 -gneE33 -gneE32 gneE340" color="cyan"/>
    </flow>
    <flow id="2.3_2-1.4_2" type="passenger" begin="0.00" departLane="best" end="3600.00" vehsPerHour="68.00">
        <route edges="gneE20 gneE192 -gneE10 -gneE9 -gneE8 -gneE7" color="cyan"/>
    </flow>
    <flow id="2.3_2-7.3_1" type="passenger" begin="0.00" departLane="best" end="3600.00" vehsPerHour="100.00">
        <route edges="gneE20 gneE192 -gneE10 -gneE9 gneE34 gneE35 gneE37 gneE38 gneE39 gneE40 gneE41 gneE42 -gneE44" color="cyan"/>
    </flow>
    <flow id="2.3_4-4.2_4" type="passenger" begin="0.00" departLane="best" end="3600.00" vehsPerHour="48.00">
        <route edges="gneE20 gneE22 gneE25 -gneE12 gneE13 gneE14 gneE15 gneE16 gneE17" color="cyan"/>
    </flow>
    <flow id="3.3_1-5.3_4" type="passenger" begin="0.00" departLane="best" end="3600.00" vehsPerHour="97.00">
        <route edges="gneE27 gneE28 gneE29 gneE84 gneE84.39 gneE85 gneE86 gneE87 gneE88 gneE94 gneE338" color="cyan"/>
    </flow>
    <flow id="3.3_2-1.4_2" type="passenger" begin="0.00" departLane="best" end="3600.00" vehsPerHour="56.00">
        <route edges="gneE27 -gneE13 gneE12 -gneE11 -gneE10 -gneE9 -gneE8 -gneE7" color="cyan"/>
    </flow>
    <flow id="3.3_2-7.3_1" type="passenger" begin="0.00" departLane="best" end="3600.00" vehsPerHour="100.00">
        <route edges="gneE27 -gneE13 gneE12 -gneE11 -gneE10 -gneE9 gneE34 gneE35 gneE37 gneE38 gneE39 gneE40 gneE41 gneE42 -gneE44" color="cyan"/>
    </flow>
    <flow id="3.3_4-8.3_4" type="passenger" begin="0.00" departLane="best" end="3600.00" vehsPerHour="68.00">
        <route edges="gneE27 gneE14 gneE15 gneE63 gneE64" color="cyan"/>
    </flow>
    <flow id="4.3_1-8.3_1" type="passenger" begin="0.00" departLane="best" end="3600.00" vehsPerHour="750.00">
        <route edges="-gneE64 -gneE63 -gneE62 -gneE61 -gneE60 -gneE58 -gneE57 -gneE57.256 -gneE57.746 -gneE56 -gneE56.101 -gneE56.123" color="cyan"/>
    </flow>
    <flow id="4.3_1-8.3_2" type="passenger" begin="0.00" departLane="best" end="3600.00" vehsPerHour="4.00">
        <route edges="-gneE64 -gneE63 -gneE62 -gneE61 -gneE60 -gneE58 -gneE57 -gneE57.256 -gneE57.746 -gneE56 -gneE56.101 gneE326" color="cyan"/>
    </flow>
    <flow id="4.3_2-1.4_2" type="passenger" begin="0.00" departLane="best" end="3600.00" vehsPerHour="300.00">
        <route edges="-gneE64 gneE189 -gneE14 -gneE13 gneE12 -gneE11 -gneE10 -gneE9 -gneE8 -gneE7" color="cyan"/>
    </flow>
    <flow id="4.3_2-5.3_1" type="passenger" begin="0.00" departLane="best" end="3600.00" vehsPerHour="54.00">
        <route edges="-gneE64 gneE189 -gneE14 gneE28 gneE29 gneE84 gneE84.39 gneE85 gneE86 gneE87 gneE88 gneE89 gneE90 gneE239" color="cyan"/>
    </flow>
    <flow id="4.3_4" type="passenger" begin="0.00" departLane="best" end="3600.00" vehsPerHour="24.00">
        <route edges="-gneE64 -gneE63 gneE16 gneE17" color="cyan"/>
    </flow>
    <flow id="4.4_1-5.3_1" type="passenger" begin="0.00" departLane="best" end="3600.00" vehsPerHour="8.00">
        <route edges="-gneE17 -gneE16 -gneE62 -gneE61 -gneE60 -gneE82 -gneE81 -gneE80 gneE86 gneE87 gneE88 gneE89 gneE90 gneE239" color="cyan"/>
    </flow>
    <flow id="4.4_1-6.3_4" type="passenger" begin="0.00" departLane="best" end="3600.00" vehsPerHour="50.00">
        <route edges="-gneE17 -gneE16 -gneE62 -gneE61 -gneE60 gneE83" color="cyan"/>
    </flow>
    <flow id="4.4_1-8.3_1" type="passenger" begin="0.00" departLane="best" end="3600.00" vehsPerHour="1049.87">
        <route edges="-gneE17 -gneE16 -gneE62 -gneE61 -gneE60 -gneE58 -gneE57 -gneE57.256 -gneE57.746 -gneE56 -gneE56.101 -gneE56.123" color="cyan"/>
    </flow>
    <flow id="4.4_1-8.3_2" type="passenger" begin="0.00" departLane="best" end="3600.00" vehsPerHour="4.00">
        <route edges="-gneE17 -gneE16 -gneE62 -gneE61 -gneE60 -gneE58 -gneE57 -gneE57.256 -gneE57.746 -gneE56 -gneE56.101 gneE326" color="cyan"/>
    </flow>
    <flow id="4.4_2-1.4_2" type="passenger" begin="0.00" departLane="best" end="3600.00" vehsPerHour="750.00">
        <route edges="-gneE17 -gneE16 -gneE15 -gneE14 -gneE13 gneE12 -gneE11 -gneE10 -gneE9 -gneE8 -gneE7" color="cyan"/>
    </flow>
    <flow id="4.4_2-1.4_3" type="passenger" begin="0.00" departLane="best" end="3600.00" vehsPerHour="100.00">
        <route edges="-gneE17 -gneE16 -gneE15 -gneE14 -gneE13 gneE12 -gneE11 -gneE10 gneE195 gneE241" color="cyan"/>
    </flow>
    <flow id="4.4_2-2.4_3" type="passenger" begin="0.00" departLane="best" end="3600.00" vehsPerHour="50.00">
        <route edges="-gneE17 -gneE16 -gneE15 -gneE14 -gneE13 gneE191 -gneE22 -gneE20" color="cyan"/>
    </flow>
    <flow id="4.4_2-5.3_1" type="passenger" begin="0.00" departLane="best" end="3600.00" vehsPerHour="60.00">
        <route edges="-gneE17 -gneE16 -gneE15 -gneE14 gneE28 gneE29 gneE84 gneE84.39 gneE85 gneE86 gneE87 gneE88 gneE89 gneE90 gneE239" color="cyan"/>
    </flow>
    <flow id="4.4_2-7.3_1" type="passenger" begin="0.00" departLane="best" end="3600.00" vehsPerHour="240.00">
        <route edges="-gneE17 -gneE16 -gneE15 -gneE14 -gneE13 gneE12 -gneE11 -gneE10 -gneE9 gneE34 gneE35 gneE37 gneE38 gneE39 gneE40 gneE41 gneE42 -gneE44" color="cyan"/>
    </flow>
    <flow id="4.4_2-7.3_2" type="passenger" begin="0.00" departLane="best" end="3600.00" vehsPerHour="60.00">
        <route edges="-gneE17 -gneE16 -gneE15 -gneE14 -gneE13 gneE12 -gneE11 -gneE10 -gneE9 gneE34 gneE35 gneE37 gneE38 gneE39 -gneE179 -gneE179.27" color="cyan"/>
    </flow>
    <flow id="4.4_3" type="passenger" begin="0.00" departLane="best" end="3600.00" vehsPerHour="137.00">
        <route edges="-gneE17 gneE188 gneE64" color="cyan"/>
    </flow>
    <flow id="6.4_3-4.1_3" type="passenger" begin="0.00" departLane="best" end="3600.00" vehsPerHour="12.00">
        <route edges="-gneE83 gneE59 gneE61 gneE62 gneE63 gneE64" color="cyan"/>
    </flow>
    <flow id="7.1_2" type="passenger" begin="0.00" departLane="best" end="3600.00" vehsPerHour="188.00">
        <route edges="gneE44 -gneE43 -gneE41 -gneE40 -gneE179" color="cyan"/>
    </flow>
    <flow id="7.1_3-1.1_2" type="passenger" begin="0.00" departLane="best" end="3600.00" vehsPerHour="200.00">
        <route edges="gneE44 -gneE43 -gneE41 -gneE40 -gneE39 -gneE38 -gneE37 -gneE36 -gneE34 -gneE8 -gneE7" color="cyan"/>
    </flow>
    <flow id="7.1_3-1.1_3" type="passenger" begin="0.00" departLane="best" end="3600.00" vehsPerHour="550.04">
        <route edges="gneE44 -gneE43 -gneE41 -gneE40 -gneE39 -gneE38 -gneE37 -gneE36 -gneE34 gneE19 gneE241" color="cyan"/>
    </flow>
    <flow id="7.1_3-2.2_1" type="passenger" begin="0.00" departLane="best" end="3600.00" vehsPerHour="150.00">
        <route edges="gneE44 -gneE43 -gneE41 -gneE40 -gneE39 -gneE38 -gneE37 -gneE36 gneE194 gneE10 gneE11 -gneE33 -gneE32 gneE340" color="cyan"/>
    </flow>
    <flow id="7.1_3-2.2_3" type="passenger" begin="0.00" departLane="best" end="3600.00" vehsPerHour="150.00">
        <route edges="gneE44 -gneE43 -gneE41 -gneE40 -gneE39 -gneE38 -gneE37 -gneE36 gneE194 gneE10 gneE11 -gneE25 -gneE22" color="cyan"/>
    </flow>
    <flow id="7.1_3-3.2_3" type="passenger" begin="0.00" departLane="best" end="3600.00" vehsPerHour="200.00">
        <route edges="gneE44 -gneE43 -gneE41 -gneE40 -gneE39 -gneE38 -gneE37 -gneE36 gneE194 gneE10 gneE11 -gneE12 gneE13 -gneE27" color="cyan"/>
    </flow>
    <flow id="7.1_4-8.2_1" type="passenger" begin="0.00" departLane="best" end="3600.00" vehsPerHour="33.00">
        <route edges="gneE44 gneE45 gneE46 gneE47 gneE47.111 gneE48 gneE49 gneE51 gneE52 gneE53 gneE54 gneE55 gneE206 -gneE56 -gneE56.101 -gneE56.123" color="cyan"/>
    </flow>
    <flow id="7.2_1" type="passenger" begin="0.00" departLane="best" end="3600.00" vehsPerHour="133.00">
        <route edges="gneE179 gneE179.220 gneE40 gneE41 gneE42 -gneE44" color="cyan"/>
    </flow>
    <flow id="7.2_3-1.1_3" type="passenger" begin="0.00" departLane="best" end="3600.00" vehsPerHour="240.00">
        <route edges="gneE179 gneE179.220 -gneE39 -gneE38 -gneE37 -gneE36 -gneE34 gneE19 gneE241" color="cyan"/>
    </flow>
    <flow id="7.2_3-2.2_1" type="passenger" begin="0.00" departLane="best" end="3600.00" vehsPerHour="120.00">
        <route edges="gneE179 gneE179.220 -gneE39 -gneE38 -gneE37 -gneE36 gneE194 gneE10 gneE11 -gneE33 -gneE32 gneE340" color="cyan"/>
    </flow>
    <flow id="7.2_3-2.2_3" type="passenger" begin="0.00" departLane="best" end="3600.00" vehsPerHour="120.00">
        <route edges="gneE179 gneE179.220 -gneE39 -gneE38 -gneE37 -gneE36 gneE194 gneE10 gneE11 -gneE25 -gneE22" color="cyan"/>
    </flow>
    <flow id="8.1_3-4.1_3" type="passenger" begin="0.00" departLane="best" end="3600.00" vehsPerHour="1000.00">
        <route edges="gneE56 gneE56.273 gneE56.365 gneE56.365.22 gneE57 gneE57.70 gneE57.561 gneE58 gneE59 gneE61 gneE62 gneE63 gneE64" color="cyan"/>
    </flow>
    <flow id="8.1_3-4.1_4" type="passenger" begin="0.00" departLane="best" end="3600.00" vehsPerHour="483.03">
        <route edges="gneE56 gneE56.273 gneE56.365 gneE56.365.22 gneE57 gneE57.70 gneE57.561 gneE58 gneE59 gneE61 gneE187 gneE17" color="cyan"/>
    </flow>
    <flow id="8.1_3-5.1_3" type="passenger" begin="0.00" departLane="best" end="3600.00" vehsPerHour="140.00">
        <route edges="gneE56 gneE56.273 gneE56.365 gneE56.365.22 gneE57 gneE337 -gneE55 -gneE54 -gneE93 -gneE92 -gneE91 -gneE91.207 -gneE90 gneE239" color="cyan"/>
    </flow>
</routes>
