<?xml version="1.0" encoding="UTF-8"?>
<!-- generated on 12/02/20 12:40:56 by Eclipse SUMO od2trips Version 1.8.0
<configuration
xmlns:xsi="http://www.w3.org/2001/XMLSchema-instance" xsi:noNamespaceSchemaLocation="http://sumo.dlr.de/xsd/od2tripsConfiguration.xsd"><input><taz-files value="D:\MEGA\Greenline\Greenline_sumo\greenline_OD\taz.add.xml"/><od-amitran-files value="D:\MEGA\Greenline\Greenline_sumo\greenline_OD\input_od.xml"/></input><output><output-file value="D:\MEGA\Greenline\Greenline_sumo\greenline_OD\trips.trips.xml"/></output><processing><vtype value="10"/></processing><report><verbose value="true"/></report></configuration>
-->
<routes
    xmlns:xsi="http://www.w3.org/2001/XMLSchema-instance" xsi:noNamespaceSchemaLocation="http://sumo.dlr.de/xsd/routes_file.xsd">
    <vType id="0" guiShape="passenger/sedan" length="4.30" maxSpeed="33.00" color="#FF0000" accel="2.6" decel="7.8" probability="0.49" carFollowModel="IDM" sigma="1" minGap="2" jmCrossingGap="15" tau="1"/>
    <vType id="1" guiShape="truck" length="7.10" maxSpeed="28.00" color="#808000" accel="1" decel="4.0" probability="0.08" carFollowModel="IDM" sigma="1" minGap="2" jmCrossingGap="15" tau="1"/>
    <vType id="2" guiShape="bus" length="15.0" maxSpeed="22.00" color="#00FF00" accel="1" decel="4.0" probability="0.04" carFollowModel="IDM" sigma="1" minGap="2" jmCrossingGap="15" tau="1"/>
</routes>
